20
Coordinates from ORCA-job BnOH_H2O2_ts_opt_IRC_F E -32.139110351030
  C      -0.193071      0.100183      0.934918
  C      -1.533725      0.002344      1.247652
  C      -2.472226     -0.188024      0.242972
  C      -2.065543     -0.270514     -1.080042
  C      -0.724514     -0.180934     -1.401307
  C       0.225997      0.008266     -0.395257
  C       1.655824      0.096949     -0.706701
  O       1.967701      0.287840     -2.004857
  H       0.539687      0.236578      1.715287
  H      -1.852040      0.071140      2.276369
  H      -3.518692     -0.270987      0.492694
  H      -2.796334     -0.410348     -1.861486
  H      -0.397556     -0.244632     -2.427128
  H       2.163612     -1.068959     -0.349629
  H       2.242854      0.680358      0.020406
  H       2.894858      0.543378     -2.135832
  O       2.572332     -2.118519     -0.132927
  O       3.503830     -3.660232      0.455408
  H       2.123708     -2.683154     -0.803038
  H       3.852589     -3.318469      1.281559
20
Coordinates from ORCA-job BnOH_H2O2_ts_opt_IRC_F E -32.140547149040
  C      -0.193164      0.099495      0.934878
  C      -1.533953      0.002341      1.247585
  C      -2.472182     -0.187653      0.242859
  C      -2.065225     -0.270434     -1.079851
  C      -0.723684     -0.180951     -1.400791
  C       0.226547      0.006977     -0.394416
  C       1.661411      0.096264     -0.702224
  O       1.968020      0.287245     -2.005882
  H       0.539644      0.236571      1.715294
  H      -1.852077      0.071130      2.276360
  H      -3.518692     -0.270868      0.492629
  H      -2.796176     -0.410433     -1.861428
  H      -0.397430     -0.244679     -2.426977
  H       2.155725     -1.061277     -0.353702
  H       2.240186      0.681031      0.018391
  H       2.894518      0.543114     -2.135567
  O       2.579691     -2.135710     -0.131925
  O       3.497197     -3.651331      0.451617
  H       2.127366     -2.681073     -0.798157
  H       3.851570     -3.317492      1.280371
20
Coordinates from ORCA-job BnOH_H2O2_ts_opt_IRC_F E -32.142838953400
  C      -0.193252      0.098732      0.934668
  C      -1.534345      0.002231      1.247468
  C      -2.472125     -0.187281      0.242715
  C      -2.064784     -0.270331     -1.079430
  C      -0.722230     -0.180844     -1.399890
  C       0.226725      0.006089     -0.393294
  C       1.667756      0.086545     -0.697658
  O       1.968369      0.287602     -2.007504
  H       0.539494      0.236511      1.715283
  H      -1.852187      0.071142      2.276365
  H      -3.518738     -0.270641      0.492494
  H      -2.795705     -0.410487     -1.861246
  H      -0.397101     -0.244689     -2.426459
  H       2.144304     -1.046209     -0.359808
  H       2.238413      0.685346      0.017785
  H       2.894437      0.542807     -2.135292
  O       2.595459     -2.157573     -0.123036
  O       3.486905     -3.636759      0.445908
  H       2.128370     -2.684170     -0.797805
  H       3.849527     -3.315755      1.277801
20
Coordinates from ORCA-job BnOH_H2O2_ts_opt_IRC_F E -32.145906088720
  C      -0.193453      0.098308      0.934348
  C      -1.534823      0.002127      1.247381
  C      -2.472031     -0.187064      0.242594
  C      -2.064710     -0.270198     -1.078884
  C      -0.721004     -0.180583     -1.399292
  C       0.226707      0.005580     -0.392197
  C       1.673845      0.075247     -0.693020
  O       1.968540      0.288627     -2.009380
  H       0.539322      0.236436      1.715206
  H      -1.852328      0.071153      2.276381
  H      -3.518854     -0.270440      0.492362
  H      -2.795177     -0.410500     -1.861054
  H      -0.396700     -0.244653     -2.425754
  H       2.134543     -1.029682     -0.365401
  H       2.236598      0.689850      0.017000
  H       2.894475      0.542457     -2.134966
  O       2.611746     -2.180781     -0.112700
  O       3.476665     -3.621871      0.439882
  H       2.128452     -2.688067     -0.798856
  H       3.847479     -3.313681      1.275412
20
Coordinates from ORCA-job BnOH_H2O2_ts_opt_IRC_F E -32.149597489890
  C      -0.193693      0.098049      0.933994
  C      -1.535264      0.002036      1.247314
  C      -2.471983     -0.186918      0.242456
  C      -2.064658     -0.270054     -1.078322
  C      -0.720028     -0.180259     -1.398745
  C       0.226445      0.005257     -0.391229
  C       1.679367      0.065575     -0.688419
  O       1.968613      0.289877     -2.011545
  H       0.539148      0.236383      1.715101
  H      -1.852480      0.071160      2.276419
  H      -3.519010     -0.270275      0.492256
  H      -2.794734     -0.410506     -1.860908
  H      -0.396306     -0.244591     -2.425075
  H       2.126511     -1.014492     -0.370231
  H       2.234603      0.693900      0.015938
  H       2.894540      0.542085     -2.134598
  O       2.626031     -2.205311     -0.104302
  O       3.467071     -3.607663      0.434065
  H       2.129576     -2.690406     -0.798353
  H       3.845542     -3.311583      1.273248
20
Coordinates from ORCA-job BnOH_H2O2_ts_opt_IRC_F E -32.153905136750
  C      -0.193957      0.097880      0.933556
  C      -1.535801      0.001928      1.247304
  C      -2.471858     -0.186807      0.242208
  C      -2.064922     -0.269928     -1.077589
  C      -0.719037     -0.179894     -1.398554
  C       0.226409      0.005221     -0.390090
  C       1.683884      0.057106     -0.684218
  O       1.968615      0.291420     -2.013939
  H       0.538961      0.236355      1.714967
  H      -1.852646      0.071163      2.276464
  H      -3.519250     -0.270123      0.492169
  H      -2.794280     -0.410502     -1.860761
  H      -0.395933     -0.244487     -2.424253
  H       2.119526     -1.000140     -0.374665
  H       2.232522      0.698176      0.014841
  H       2.894667      0.541672     -2.134203
  O       2.641303     -2.231087     -0.094630
  O       3.457276     -3.593245      0.427833
  H       2.130336     -2.693247     -0.798442
  H       3.843476     -3.309196      1.271064
20
Coordinates from ORCA-job BnOH_H2O2_ts_opt_IRC_F E -32.158507059420
  C      -0.194310      0.097771      0.933345
  C      -1.536101      0.001831      1.247266
  C      -2.472097     -0.186724      0.242225
  C      -2.064379     -0.269780     -1.077272
  C      -0.718516     -0.179467     -1.397435
  C       0.225688      0.005213     -0.389641
  C       1.688322      0.050129     -0.680024
  O       1.968536      0.293035     -2.016519
  H       0.538765      0.236344      1.714839
  H      -1.852829      0.071161      2.276538
  H      -3.519385     -0.269972      0.492072
  H      -2.793991     -0.410518     -1.860698
  H      -0.395470     -0.244390     -2.423828
  H       2.113456     -0.987187     -0.378604
  H       2.230328      0.702133      0.013567
  H       2.894802      0.541255     -2.133790
  O       2.653570     -2.257697     -0.088356
  O       3.448503     -3.579688      0.422562
  H       2.133116     -2.694115     -0.795706
  H       3.841283     -3.307068      1.268523
20
Coordinates from ORCA-job BnOH_H2O2_ts_opt_IRC_F E -32.163167762730
  C      -0.194899      0.097700      0.933557
  C      -1.536117      0.001737      1.247079
  C      -2.472791     -0.186640      0.242790
  C      -2.062863     -0.269615     -1.077642
  C      -0.718456     -0.178953     -1.395106
  C       0.224368      0.005168     -0.390104
  C       1.692979      0.043464     -0.675662
  O       1.968400      0.294756     -2.019282
  H       0.538545      0.236340      1.714693
  H      -1.853044      0.071158      2.276659
  H      -3.519363     -0.269808      0.491937
  H      -2.793819     -0.410548     -1.860676
  H      -0.394869     -0.244311     -2.423848
  H       2.107585     -0.974399     -0.382465
  H       2.228051      0.706090      0.012198
  H       2.894940      0.540822     -2.133351
  O       2.664823     -2.285181     -0.083376
  O       3.440091     -3.566155      0.417810
  H       2.136836     -2.694296     -0.791724
  H       3.838893     -3.305064      1.265576
20
Coordinates from ORCA-job BnOH_H2O2_ts_opt_IRC_F E -32.167527546940
  C      -0.195226      0.097627      0.933206
  C      -1.536655      0.001613      1.247180
  C      -2.472777     -0.186569      0.242508
  C      -2.063040     -0.269496     -1.076914
  C      -0.717710     -0.178528     -1.394883
  C       0.224379      0.005496     -0.389080
  C       1.695850      0.038465     -0.672390
  O       1.968218      0.296674     -2.021858
  H       0.538318      0.236352      1.714546
  H      -1.853247      0.071147      2.276724
  H      -3.519659     -0.269657      0.491857
  H      -2.793408     -0.410550     -1.860564
  H      -0.394456     -0.244151     -2.423030
  H       2.102385     -0.962553     -0.386066
  H       2.225684      0.710712      0.010900
  H       2.895206      0.540345     -2.132940
  O       2.679021     -2.312042     -0.074557
  O       3.431321     -3.553415      0.412024
  H       2.138746     -2.696893     -0.790464
  H       3.836341     -3.302313      1.262864
20
Coordinates from ORCA-job BnOH_H2O2_ts_opt_IRC_F E -32.170989364580
  C      -0.195874      0.097599      0.933350
  C      -1.537057      0.001477      1.247177
  C      -2.473127     -0.186480      0.242720
  C      -2.062571     -0.269356     -1.076729
  C      -0.717273     -0.177983     -1.393870
  C       0.224336      0.005943     -0.388665
  C       1.697801      0.035741     -0.669717
  O       1.967851      0.298987     -2.024543
  H       0.538007      0.236376      1.714356
  H      -1.853529      0.071130      2.276859
  H      -3.519907     -0.269471      0.491723
  H      -2.792963     -0.410554     -1.860428
  H      -0.393862     -0.243956     -2.422349
  H       2.097748     -0.951353     -0.389508
  H       2.222833      0.716276      0.009306
  H       2.895619      0.539760     -2.132493
  O       2.693234     -2.340164     -0.065698
  O       3.423452     -3.542560      0.406683
  H       2.141573     -2.700226     -0.788383
  H       3.833002     -3.298921      1.259273
20
Coordinates from ORCA-job BnOH_H2O2_ts_opt_IRC_F E -32.173130057610
  C      -0.196518      0.097599      0.933389
  C      -1.537798      0.001296      1.247427
  C      -2.473459     -0.186382      0.242629
  C      -2.062332     -0.269158     -1.076093
  C      -0.716609     -0.177267     -1.393058
  C       0.224321      0.006825     -0.387695
  C       1.698438      0.036623     -0.668181
  O       1.967185      0.302276     -2.027447
  H       0.537545      0.236430      1.714172
  H      -1.853946      0.071091      2.277030
  H      -3.520388     -0.269219      0.491551
  H      -2.792291     -0.410556     -1.860258
  H      -0.393056     -0.243631     -2.421197
  H       2.093620     -0.940252     -0.393011
  H       2.218761      0.724341      0.007012
  H       2.896286      0.538906     -2.131966
  O       2.706813     -2.369120     -0.057148
  O       3.418292     -3.537917      0.402416
  H       2.146303     -2.705744     -0.784767
  H       3.828126     -3.293875      1.254258
20
Coordinates from ORCA-job BnOH_H2O2_ts_opt_IRC_F E -32.174678738760
  C      -0.197788      0.097730      0.934322
  C      -1.538631      0.001020      1.247652
  C      -2.474298     -0.186202      0.243149
  C      -2.061479     -0.268895     -1.075897
  C      -0.716301     -0.176203     -1.391476
  C       0.223860      0.008602     -0.387131
  C       1.696727      0.044668     -0.669338
  O       1.965895      0.307607     -2.030245
  H       0.536772      0.236552      1.714059
  H      -1.854725      0.070999      2.277457
  H      -3.521106     -0.268808      0.491198
  H      -2.791181     -0.410554     -1.859974
  H      -0.391669     -0.243045     -2.419591
  H       2.091285     -0.930779     -0.396159
  H       2.212396      0.737489      0.003343
  H       2.897332      0.537503     -2.131404
  O       2.714558     -2.389899     -0.051920
  O       3.422197     -3.552898      0.401930
  H       2.154049     -2.716625     -0.779173
  H       3.821398     -3.285997      1.248262
20
Coordinates from ORCA-job BnOH_H2O2_ts_opt_IRC_F E -32.175913576830
  C      -0.198335      0.098079      0.934513
  C      -1.540004      0.000666      1.248638
  C      -2.474713     -0.186041      0.242622
  C      -2.062000     -0.268745     -1.074518
  C      -0.716166     -0.175171     -1.391294
  C       0.222512      0.011756     -0.385742
  C       1.694940      0.053193     -0.671624
  O       1.964438      0.314640     -2.032373
  H       0.535997      0.236821      1.714544
  H      -1.855713      0.070786      2.277916
  H      -3.522206     -0.268321      0.490787
  H      -2.789989     -0.410603     -1.859896
  H      -0.390167     -0.242185     -2.417629
  H       2.091477     -0.923522     -0.398112
  H       2.205344      0.753064     -0.000924
  H       2.898145      0.535822     -2.131309
  O       2.720591     -2.404651     -0.047720
  O       3.427158     -3.571389      0.401578
  H       2.160185     -2.731699     -0.776619
  H       3.817798     -3.280234      1.246225
20
Coordinates from ORCA-job BnOH_H2O2_ts_opt_IRC_F E -32.176947834000
  C      -0.199631      0.098877      0.935678
  C      -1.540820      0.000332      1.249101
  C      -2.475788     -0.185800      0.243510
  C      -2.061865     -0.268682     -1.074529
  C      -0.716857     -0.173831     -1.390039
  C       0.221555      0.015083     -0.385886
  C       1.693801      0.060585     -0.672503
  O       1.962437      0.322847     -2.034264
  H       0.535094      0.237205      1.715254
  H      -1.856992      0.070397      2.278674
  H      -3.523154     -0.267750      0.490234
  H      -2.789201     -0.410806     -1.860031
  H      -0.388565     -0.241130     -2.416331
  H       2.092980     -0.915295     -0.399602
  H       2.197573      0.769182     -0.006127
  H       2.898998      0.533997     -2.131828
  O       2.725382     -2.422464     -0.046967
  O       3.431535     -3.583553      0.404628
  H       2.166937     -2.747684     -0.773731
  H       3.815875     -3.279245      1.243822
20
Coordinates from ORCA-job BnOH_H2O2_ts_opt_IRC_F E -32.177878619260
  C      -0.200666      0.100000      0.936351
  C      -1.541879      0.000128      1.249750
  C      -2.476615     -0.185584      0.243708
  C      -2.062295     -0.268525     -1.074002
  C      -0.717286     -0.172278     -1.389428
  C       0.220393      0.018398     -0.385247
  C       1.692421      0.068757     -0.674027
  O       1.960306      0.331957     -2.035497
  H       0.533989      0.237751      1.716142
  H      -1.858385      0.069790      2.279375
  H      -3.524365     -0.267155      0.489758
  H      -2.788673     -0.411155     -1.860262
  H      -0.387229     -0.239798     -2.414858
  H       2.096252     -0.906879     -0.400396
  H       2.189467      0.786149     -0.011471
  H       2.899423      0.531889     -2.132942
  O       2.729488     -2.436589     -0.046600
  O       3.435956     -3.597493      0.407144
  H       2.172108     -2.767068     -0.773621
  H       3.816881     -3.280031      1.245186
20
Coordinates from ORCA-job BnOH_H2O2_ts_opt_IRC_F E -32.178716501020
  C      -0.201736      0.101295      0.937010
  C      -1.543048      0.000070      1.250308
  C      -2.477561     -0.185348      0.243908
  C      -2.062815     -0.268287     -1.073710
  C      -0.717865     -0.170650     -1.388749
  C       0.219509      0.021522     -0.384792
  C       1.691464      0.076444     -0.674646
  O       1.957817      0.341366     -2.036816
  H       0.532770      0.238499      1.717135
  H      -1.859812      0.069004      2.279932
  H      -3.525463     -0.266589      0.489307
  H      -2.788394     -0.411604     -1.860461
  H      -0.386178     -0.238238     -2.413671
  H       2.100569     -0.897434     -0.400789
  H       2.181473      0.802639     -0.016559
  H       2.899558      0.529687     -2.134632
  O       2.732677     -2.452533     -0.048486
  O       3.439807     -3.606964      0.411677
  H       2.177607     -2.786785     -0.773200
  H       3.818914     -3.283829      1.246295
20
Coordinates from ORCA-job BnOH_H2O2_ts_opt_IRC_F E -32.179484755120
  C      -0.202817      0.102673      0.937682
  C      -1.544154      0.000127      1.250696
  C      -2.478501     -0.185075      0.244017
  C      -2.063258     -0.267951     -1.073506
  C      -0.718354     -0.168947     -1.388118
  C       0.218595      0.024452     -0.384283
  C       1.690432      0.084685     -0.675681
  O       1.955205      0.350797     -2.037612
  H       0.531351      0.239450      1.718111
  H      -1.861279      0.068094      2.280377
  H      -3.526611     -0.266095      0.488912
  H      -2.788315     -0.412112     -1.860639
  H      -0.385477     -0.236440     -2.412600
  H       2.106019     -0.887832     -0.400699
  H       2.173844      0.818850     -0.021030
  H       2.899164      0.527390     -2.136875
  O       2.735072     -2.465378     -0.050632
  O       3.443971     -3.618171      0.415771
  H       2.182122     -2.808164     -0.774244
  H       3.822282     -3.288088      1.249416
20
Coordinates from ORCA-job BnOH_H2O2_ts_opt_IRC_F E -32.180186463900
  C      -0.203905      0.104048      0.938184
  C      -1.545329      0.000232      1.250976
  C      -2.479452     -0.184786      0.244041
  C      -2.063808     -0.267565     -1.073329
  C      -0.718873     -0.167156     -1.387555
  C       0.217957      0.027293     -0.383806
  C       1.689840      0.092467     -0.675802
  O       1.952377      0.360112     -2.038599
  H       0.529896      0.240624      1.719151
  H      -1.862742      0.067122      2.280683
  H      -3.527653     -0.265687      0.488523
  H      -2.788305     -0.412614     -1.860759
  H      -0.385069     -0.234408     -2.411748
  H       2.111848     -0.877477     -0.400423
  H       2.166592      0.834334     -0.024969
  H       2.898413      0.525120     -2.139625
  O       2.737719     -2.480546     -0.053364
  O       3.447210     -3.626111      0.420265
  H       2.186928     -2.829449     -0.774763
  H       3.825648     -3.293289      1.251983
20
Coordinates from ORCA-job BnOH_H2O2_ts_opt_IRC_F E -32.180827484440
  C      -0.204953      0.105450      0.938714
  C      -1.546433      0.000375      1.251205
  C      -2.480361     -0.184509      0.243985
  C      -2.064222     -0.267090     -1.073209
  C      -0.719283     -0.165166     -1.387064
  C       0.217307      0.029885     -0.383276
  C       1.689124      0.100796     -0.676398
  O       1.949486      0.369213     -2.039050
  H       0.528281      0.241988      1.720123
  H      -1.864209      0.066123      2.280877
  H      -3.528751     -0.265386      0.488155
  H      -2.788345     -0.413086     -1.860877
  H      -0.384926     -0.232117     -2.410997
  H       2.118243     -0.867269     -0.399769
  H       2.159784      0.849495     -0.028308
  H       2.897188      0.522864     -2.142875
  O       2.739403     -2.493278     -0.056488
  O       3.451437     -3.636323      0.424914
  H       2.191319     -2.851543     -0.775780
  H       3.829203     -3.298159      1.255179
20
Coordinates from ORCA-job BnOH_H2O2_ts_opt_IRC_F E -32.181410059820
  C      -0.205981      0.106783      0.939057
  C      -1.547616      0.000506      1.251379
  C      -2.481285     -0.184282      0.243834
  C      -2.064741     -0.266529     -1.073014
  C      -0.719721     -0.162983     -1.386692
  C       0.216871      0.032148     -0.382730
  C       1.688809      0.108584     -0.676112
  O       1.946409      0.378223     -2.039784
  H       0.526671      0.243558      1.721150
  H      -1.865676      0.065136      2.281008
  H      -3.529722     -0.265197      0.487740
  H      -2.788354     -0.413469     -1.861003
  H      -0.384940     -0.229520     -2.410428
  H       2.124602     -0.856385     -0.399006
  H       2.153201      0.864189     -0.031340
  H       2.895646      0.520681     -2.146550
  O       2.741865     -2.508383     -0.059484
  O       3.454798     -3.644273      0.429339
  H       2.195866     -2.873390     -0.776412
  H       3.832590     -3.303132      1.258113
20
Coordinates from ORCA-job BnOH_H2O2_ts_opt_IRC_F E -32.181935702670
  C      -0.206980      0.108019      0.939522
  C      -1.548690      0.000628      1.251553
  C      -2.482113     -0.184112      0.243655
  C      -2.065057     -0.265860     -1.072971
  C      -0.720022     -0.160696     -1.386337
  C       0.216362      0.034303     -0.382133
  C       1.688195      0.117014     -0.676594
  O       1.943288      0.386898     -2.039909
  H       0.524924      0.245261      1.722062
  H      -1.867134      0.064196      2.281056
  H      -3.530798     -0.265159      0.487326
  H      -2.788355     -0.413709     -1.861171
  H      -0.385115     -0.226576     -2.409931
  H       2.131369     -0.846013     -0.397869
  H       2.146921      0.878611     -0.033968
  H       2.893657      0.518558     -2.150609
  O       2.743488     -2.521146     -0.062764
  O       3.459322     -3.654597      0.434066
  H       2.200069     -2.895753     -0.777399
  H       3.835960     -3.307602      1.261478
20
Coordinates from ORCA-job BnOH_H2O2_ts_opt_IRC_F E -32.182391677460
  C      -0.207833      0.109160      0.939589
  C      -1.549965      0.000649      1.251755
  C      -2.482956     -0.184045      0.243205
  C      -2.065674     -0.265160     -1.072589
  C      -0.720319     -0.158410     -1.386191
  C       0.216164      0.036460     -0.381407
  C       1.688208      0.124072     -0.675574
  O       1.940040      0.395183     -2.040830
  H       0.523367      0.247050      1.723100
  H      -1.868539      0.063336      2.281066
  H      -3.531586     -0.265257      0.486824
  H      -2.788269     -0.413747     -1.861402
  H      -0.385323     -0.223324     -2.409575
  H       2.137392     -0.834926     -0.396861
  H       2.140904      0.892103     -0.036477
  H       2.891504      0.516613     -2.154821
  O       2.746255     -2.537100     -0.065688
  O       3.462443     -3.661208      0.438332
  H       2.204530     -2.916958     -0.777649
  H       3.838951     -3.312225      1.264256
20
Coordinates from ORCA-job BnOH_H2O2_ts_opt_IRC_F E -32.182539405670
  C      -0.208003      0.109563      0.939633
  C      -1.550350      0.000670      1.251978
  C      -2.483108     -0.184058      0.242881
  C      -2.065790     -0.264888     -1.072419
  C      -0.720237     -0.157836     -1.386206
  C       0.215954      0.037212     -0.380926
  C       1.687846      0.127167     -0.676116
  O       1.938986      0.397825     -2.040623
  H       0.522726      0.247680      1.723375
  H      -1.869007      0.063044      2.280993
  H      -3.532025     -0.265360      0.486681
  H      -2.788244     -0.413692     -1.861528
  H      -0.385452     -0.222066     -2.409369
  H       2.139714     -0.831677     -0.396287
  H       2.138987      0.896763     -0.037196
  H       2.890553      0.515960     -2.156379
  O       2.746560     -2.540683     -0.066897
  O       3.464396     -3.665410      0.440018
  H       2.205753     -2.924463     -0.778123
  H       3.840030     -3.313485      1.265574
20
Coordinates from ORCA-job BnOH_H2O2_ts_opt_IRC_F E -32.182725157140
  C      -0.208870      0.110087      0.940435
  C      -1.550570      0.000634      1.251522
  C      -2.483626     -0.184017      0.243581
  C      -2.065472     -0.264630     -1.073161
  C      -0.720468     -0.157029     -1.385461
  C       0.215850      0.038149     -0.381383
  C       1.687740      0.130559     -0.675927
  O       1.937448      0.401278     -2.040827
  H       0.521999      0.248522      1.723778
  H      -1.869691      0.062686      2.281150
  H      -3.532308     -0.265489      0.486385
  H      -2.788132     -0.413576     -1.861591
  H      -0.385491     -0.220454     -2.409396
  H       2.142384     -0.826992     -0.395680
  H       2.136498      0.902616     -0.038221
  H       2.889427      0.515150     -2.158391
  O       2.747531     -2.546896     -0.068259
  O       3.466216     -3.669201      0.441965
  H       2.207513     -2.933833     -0.778457
  H       3.841315     -3.315301      1.267003
20
Coordinates from ORCA-job BnOH_H2O2_ts_opt_IRC_F E -32.182929976320
  C      -0.209474      0.110701      0.940555
  C      -1.551000      0.000621      1.251607
  C      -2.483962     -0.184077      0.243244
  C      -2.065481     -0.264284     -1.072957
  C      -0.720565     -0.156082     -1.385230
  C       0.215618      0.039359     -0.380889
  C       1.687537      0.134757     -0.675917
  O       1.935678      0.405399     -2.040975
  H       0.521129      0.249572      1.724332
  H      -1.870453      0.062242      2.281129
  H      -3.532789     -0.265679      0.486086
  H      -2.788036     -0.413419     -1.861800
  H      -0.385595     -0.218473     -2.409186
  H       2.145598     -0.821444     -0.394889
  H       2.133561      0.909643     -0.039426
  H       2.887936      0.514184     -2.160862
  O       2.748568     -2.554276     -0.070045
  O       3.468543     -3.673863      0.444421
  H       2.209679     -2.945130     -0.778813
  H       3.842801     -3.317485      1.268681
20
Coordinates from ORCA-job BnOH_H2O2_ts_opt_IRC_F E -32.183120210220
  C      -0.209863      0.111363      0.940983
  C      -1.551697      0.000551      1.251628
  C      -2.484434     -0.184153      0.243394
  C      -2.065609     -0.264025     -1.073217
  C      -0.720554     -0.155139     -1.384994
  C       0.215657      0.040605     -0.380674
  C       1.687358      0.138680     -0.675598
  O       1.933829      0.409419     -2.041286
  H       0.520226      0.250640      1.724830
  H      -1.871204      0.061806      2.281114
  H      -3.533119     -0.265905      0.485729
  H      -2.787818     -0.413205     -1.861928
  H      -0.385656     -0.216494     -2.408984
  H       2.148553     -0.815802     -0.394121
  H       2.130732      0.916448     -0.040625
  H       2.886434      0.513266     -2.163338
  O       2.749821     -2.561755     -0.071635
  O       3.470654     -3.678200      0.446614
  H       2.211740     -2.956298     -0.779272
  H       3.844242     -3.319538      1.270443
20
Coordinates from ORCA-job BnOH_H2O2_ts_opt_IRC_F E -32.183301050860
  C      -0.210468      0.112019      0.941285
  C      -1.552113      0.000491      1.251629
  C      -2.484684     -0.184279      0.243186
  C      -2.065557     -0.263721     -1.073138
  C      -0.720471     -0.154154     -1.384610
  C       0.215303      0.041843     -0.380317
  C       1.687133      0.142980     -0.675713
  O       1.932014      0.413356     -2.041359
  H       0.519350      0.251767      1.725408
  H      -1.871981      0.061362      2.281135
  H      -3.533608     -0.266194      0.485402
  H      -2.787650     -0.412978     -1.862169
  H      -0.385677     -0.214476     -2.408780
  H       2.151589     -0.810376     -0.393244
  H       2.127997      0.923283     -0.041791
  H       2.884765      0.512357     -2.165884
  O       2.750779     -2.569000     -0.073537
  O       3.473102     -3.682897      0.449091
  H       2.213898     -2.967542     -0.779646
  H       3.845571     -3.321576      1.272115
20
Coordinates from ORCA-job BnOH_H2O2_ts_opt_IRC_F E -32.183471807280
  C      -0.210910      0.112703      0.941560
  C      -1.552770      0.000391      1.251672
  C      -2.485064     -0.184436      0.243152
  C      -2.065597     -0.263450     -1.073203
  C      -0.720539     -0.153112     -1.384378
  C       0.215355      0.043216     -0.379891
  C       1.686979      0.146851     -0.675256
  O       1.930080      0.417283     -2.041775
  H       0.518495      0.252940      1.726015
  H      -1.872757      0.060907      2.281140
  H      -3.533912     -0.266528      0.485017
  H      -2.787394     -0.412718     -1.862380
  H      -0.385632     -0.212440     -2.408574
  H       2.154334     -0.804612     -0.392439
  H       2.125295      0.930001     -0.043009
  H       2.883116      0.511483     -2.168459
  O       2.752059     -2.576712     -0.075236
  O       3.475273     -3.687169      0.451339
  H       2.216031     -2.978860     -0.780059
  H       3.846850     -3.323473      1.273825
20
Coordinates from ORCA-job BnOH_H2O2_ts_opt_IRC_F E -32.183632650800
  C      -0.211434      0.113425      0.942008
  C      -1.553197      0.000314      1.251773
  C      -2.485335     -0.184626      0.242986
  C      -2.065514     -0.263137     -1.073244
  C      -0.720420     -0.151999     -1.384106
  C       0.215086      0.044569     -0.379501
  C       1.686655      0.151194     -0.675478
  O       1.928236      0.421022     -2.041803
  H       0.517573      0.254132      1.726582
  H      -1.873533      0.060435      2.281126
  H      -3.534354     -0.266942      0.484661
  H      -2.787134     -0.412447     -1.862625
  H      -0.385578     -0.210376     -2.408276
  H       2.157178     -0.799283     -0.391503
  H       2.122747      0.936688     -0.044162
  H       2.881285      0.510644     -2.171060
  O       2.753081     -2.583953     -0.077135
  O       3.477736     -3.691903      0.453756
  H       2.218156     -2.990275     -0.780487
  H       3.848059     -3.325217      1.275551
20
Coordinates from ORCA-job BnOH_H2O2_ts_opt_IRC_F E -32.183784526050
  C      -0.211936      0.114171      0.942310
  C      -1.553794      0.000197      1.251774
  C      -2.485682     -0.184837      0.242914
  C      -2.065520     -0.262824     -1.073252
  C      -0.720405     -0.150833     -1.383774
  C       0.215065      0.046059     -0.379086
  C       1.686513      0.155071     -0.674992
  O       1.926255      0.424744     -2.042267
  H       0.516745      0.255378      1.727255
  H      -1.874331      0.059943      2.281169
  H      -3.534595     -0.267415      0.484247
  H      -2.786830     -0.412158     -1.862887
  H      -0.385421     -0.208284     -2.408070
  H       2.159689     -0.793568     -0.390666
  H       2.120213      0.943226     -0.045419
  H       2.879496      0.509871     -2.173678
  O       2.754289     -2.591738     -0.079003
  O       3.480015     -3.696141      0.456128
  H       2.220329     -3.001698     -0.780858
  H       3.849197     -3.326899      1.277217
20
Coordinates from ORCA-job BnOH_H2O2_ts_opt_IRC_F E -32.183927938810
  C      -0.212441      0.114980      0.942802
  C      -1.554222      0.000113      1.251883
  C      -2.485872     -0.185059      0.242801
  C      -2.065346     -0.262474     -1.073398
  C      -0.720308     -0.149527     -1.383490
  C       0.214768      0.047539     -0.378653
  C       1.686147      0.159369     -0.675285
  O       1.924372      0.428246     -2.042309
  H       0.515814      0.256635      1.727855
  H      -1.875117      0.059421      2.281158
  H      -3.535040     -0.267984      0.483881
  H      -2.786498     -0.411856     -1.863147
  H      -0.385276     -0.206160     -2.407720
  H       2.162301     -0.788317     -0.389694
  H       2.117864      0.949775     -0.046589
  H       2.877541      0.509147     -2.176311
  O       2.755313     -2.599081     -0.080983
  O       3.482514     -3.700786      0.458587
  H       2.222473     -3.013330     -0.781296
  H       3.850305     -3.328384      1.278971
20
Coordinates from ORCA-job BnOH_H2O2_ts_opt_IRC_F E -32.184061878300
  C      -0.212965      0.115798      0.943111
  C      -1.554859     -0.000010      1.251821
  C      -2.486268     -0.185306      0.242776
  C      -2.065394     -0.262094     -1.073380
  C      -0.720295     -0.148145     -1.383101
  C       0.214845      0.049193     -0.378280
  C       1.686053      0.163034     -0.674518
  O       1.922336      0.431699     -2.042990
  H       0.515044      0.257940      1.728597
  H      -1.875922      0.058880      2.281244
  H      -3.535118     -0.268607      0.483427
  H      -2.786144     -0.411546     -1.863440
  H      -0.385000     -0.204008     -2.407550
  H       2.164456     -0.782628     -0.388880
  H       2.115504      0.956009     -0.047937
  H       2.875706      0.508507     -2.178913
  O       2.756539     -2.607004     -0.082908
  O       3.484772     -3.704773      0.460987
  H       2.224675     -3.024881     -0.781627
  H       3.851327     -3.329791      1.280625
20
Coordinates from ORCA-job BnOH_H2O2_ts_opt_IRC_F E -32.184183347640
  C      -0.213450      0.116695      0.943816
  C      -1.555101     -0.000050      1.252011
  C      -2.486270     -0.185521      0.242696
  C      -2.065002     -0.261663     -1.073755
  C      -0.720140     -0.146720     -1.382853
  C       0.214293      0.050702     -0.377865
  C       1.685490      0.167449     -0.675533
  O       1.920615      0.434694     -2.042673
  H       0.514039      0.259183      1.729103
  H      -1.876671      0.058312      2.281194
  H      -3.535746     -0.269346      0.483126
  H      -2.785772     -0.411225     -1.863685
  H      -0.384840     -0.201857     -2.407062
  H       2.166892     -0.778043     -0.387822
  H       2.113533      0.962223     -0.049018
  H       2.873633      0.507937     -2.181448
  O       2.757380     -2.613811     -0.084961
  O       3.487386     -3.709476      0.463480
  H       2.226706     -3.036343     -0.782101
  H       3.852319     -3.330875      1.282414
20
Coordinates from ORCA-job BnOH_H2O2_ts_opt_IRC_F E -32.184235482970
  C      -0.213754      0.117071      0.943968
  C      -1.555468     -0.000126      1.251791
  C      -2.486573     -0.185628      0.242882
  C      -2.065089     -0.261484     -1.073780
  C      -0.720181     -0.146067     -1.382518
  C       0.214514      0.051498     -0.377890
  C       1.685580      0.168723     -0.674655
  O       1.919659      0.436085     -2.043298
  H       0.513800      0.259776      1.729494
  H      -1.877031      0.058061      2.281311
  H      -3.535546     -0.269667      0.482875
  H      -2.785598     -0.411077     -1.863816
  H      -0.384632     -0.200907     -2.407118
  H       2.167536     -0.775449     -0.387546
  H       2.112561      0.964678     -0.049704
  H       2.872911      0.507727     -2.182532
  O       2.757976     -2.617443     -0.085779
  O       3.488264     -3.710871      0.464498
  H       2.227666     -3.041257     -0.782207
  H       3.852697     -3.331377      1.283085
20
Coordinates from ORCA-job BnOH_H2O2_ts_opt_IRC_F E -32.184288337850
  C      -0.213789      0.117478      0.943870
  C      -1.555683     -0.000128      1.252141
  C      -2.486584     -0.185772      0.242377
  C      -2.065143     -0.261255     -1.073473
  C      -0.720114     -0.145426     -1.382718
  C       0.214405      0.052284     -0.377252
  C       1.685402      0.170465     -0.674841
  O       1.918880      0.437358     -2.043346
  H       0.513412      0.260359      1.729795
  H      -1.877342      0.057786      2.281233
  H      -3.535764     -0.270040      0.482745
  H      -2.785453     -0.410932     -1.863989
  H      -0.384544     -0.199920     -2.406854
  H       2.168436     -0.773298     -0.387116
  H       2.111716      0.967333     -0.050240
  H       2.872006      0.507515     -2.183642
  O       2.758408     -2.620674     -0.086689
  O       3.489355     -3.712718      0.465597
  H       2.228588     -3.046354     -0.782395
  H       3.853099     -3.331794      1.283860
