20
Coordinates from ORCA-job BnOH_H2O2_ts_opt_IRC_F E -32.184288337850
  C          -0.21378882504160      0.11747790589415      0.94387009875630
  C          -1.55568267200581     -0.00012825303453      1.25214132297197
  C          -2.48658372192513     -0.18577236617052      0.24237729225944
  C          -2.06514332859147     -0.26125532622028     -1.07347282410000
  C          -0.72011379513684     -0.14542590930326     -1.38271763531758
  C           0.21440487544662      0.05228367367523     -0.37725208072482
  C           1.68540224283062      0.17046462503244     -0.67484074173170
  O           1.91888035896402      0.43735815661275     -2.04334600163690
  H           0.51341222369015      0.26035865779782      1.72979541765542
  H          -1.87734245525238      0.05778573502534      2.28123311609347
  H          -3.53576378742585     -0.27003987380500      0.48274478386813
  H          -2.78545305253772     -0.41093158729881     -1.86398925579146
  H          -0.38454449430767     -0.19992032975952     -2.40685365222501
  H           2.16843597312070     -0.77329783532965     -0.38711632566296
  H           2.11171621221789      0.96733284035222     -0.05024025027667
  H           2.87200590763622      0.50751504690064     -2.18364217630221
  O           2.75840818354145     -2.62067378377478     -0.08668933845045
  O           3.48935538893832     -3.71271839173871      0.46559689235296
  H           2.22858793164771     -3.04635406811963     -0.78239517816343
  H           3.85309877783447     -3.33179406057836      1.28385972058882
