!xtb
!alpb(water)
!optts
!slowconv
!tightscf
!freq
!irc
%maxcore 2200
%pal
    nprocs 12
end

%geom
    maxiter 1000
    cartfallback true
    calc_hess true
    recalc_hess 25
end

%irc
    maxiter 100
end

%output
    jsonpropfile true
    jsongbwfile true
end

* xyz 0 1
C            -0.1723017513932700             0.0692790281079100             0.9415901451532001
C            -1.5114722700506400            -0.0272451766434100             1.2590019268918400
C            -2.4555446676647699            -0.2051917346218400             0.2568391953322000
C            -2.0546595961954099            -0.2876605050646100            -1.0680919471839001
C            -0.7162547120873900            -0.1972226518158500            -1.3951696427051301
C             0.2395008119508100            -0.0075437644831900            -0.3930635908946400
C             1.6583410285728200             0.1019782081889500            -0.7190975470132500
O             1.9716027320562299             0.2601184237578900            -2.0166149610835902
H             0.5648618405185100             0.1984806486595800             1.7189781601051799
H            -1.8252714597636499             0.0338136316755000             2.2895567599919202
H            -3.5015371551691699            -0.2817027574554700             0.5102675526882500
H            -2.7890276255413702            -0.4265994297671100            -1.8462635536545000
H            -0.3933154166801400            -0.2573885755436100            -2.4224441501523599
H             2.1132737072387400            -1.1430892974980500            -0.3760765204284900
H             2.2597980208995501             0.6492244708936100             0.0055850378915400
H             2.8970314500783201             0.5203427167914900            -2.1507932034921202
O             2.5463168128129299            -2.0954527576966000            -0.1541498006762300
O             3.4230200264564101            -3.6582109524867201             0.5032274020261200
H             2.2324742583455199            -2.6923655804885298            -0.8441071774256200
H             3.7237460875817900            -3.2935283991363700             1.3374348102850699
*
