!xtb
!alpb(water)
!opt
!tightscf
!slowconv
%maxcore 2200
%pal
    nprocs 12
end

%geom
    maxiter 1000
    recalc_hess 100
    constraints 
     { a 6 13 16 170.0 c }
     { b 13 16 1.7 c }
     { a 13 16 17 170.0 c }
    end
end

%output
    jsonpropfile true
    jsongbwfile true
end

* xyz 0 1
C            -0.2935437383996711             1.0803812170633664             0.4467718800357657
C            -1.6145209986768316             0.8383406834302867             0.7779879504722098
C            -2.2263872530737414            -0.3396769300720802             0.3812185174073356
C            -1.5119693698489187            -1.2761708904007087            -0.3461507067435959
C            -0.1874172652925140            -1.0383712850613358            -0.6718896960419375
C             0.4297312454319672             0.1419478825994418            -0.2806227634019600
C             1.8751873173841975             0.4104199541975018            -0.6148257804173067
O             2.6879015383895202             0.5767400526457975             0.5371489394062405
H             0.1868021943999642             1.9997450317957308             0.7476378420120531
H            -2.1689771518353771             1.5722987102088717             1.3430748688449550
H            -3.2584703855052157            -0.5264176309552931             0.6371950337426310
H            -1.9852756684981365            -2.1949368041702466            -0.6585603423212014
H             0.3677010384784462            -1.7718000544746451            -1.2390097531769142
H             1.9604477739793444             1.3525324501191081            -1.1635565468469469
H             2.2781501246325520            -0.3962313496182978            -1.2400649080229547
H             2.6180567892522744            -0.2116861953246025             1.0925160317760532
O             1.8881735594258517             3.6901224133566566             0.9690822162698947
O             3.2084147641946705             3.2377687853618529             1.2464232277694307
H             1.9463436671581351             4.6427254953681958             1.1599313824934931
H             3.1482435926678587             2.2728953891019397             1.0567884845891937
*
