20
Coordinates from ORCA-job BnOH_H2O2_TS_guess E -32.180321411820
  C          -0.10963377111361      0.28014060386676      1.37481160922245
  C          -1.48412617454105      0.20132926204561      1.50730843608306
  C          -2.27285409496953     -0.07363356241879      0.40249668849094
  C          -1.67991200352267     -0.27342353781011     -0.83280267656204
  C          -0.30389750415190     -0.20137621140282     -0.96331256428205
  C           0.49247668827503      0.07946911044987      0.13904927777559
  C           1.99054078323402      0.18547896245504      0.00443757075855
  O           2.70241605130270     -0.35390274559822      1.10103035599885
  H           0.51450125962947      0.49780928648364      2.22898823669345
  H          -1.94119355574059      0.35843916998990      2.47291308590051
  H          -3.34611029491380     -0.13241784792417      0.50394232710337
  H          -2.29060308581894     -0.48979026683063     -1.69665613165191
  H           0.15503281017188     -0.36213119669536     -1.92803778396795
  H           2.27216147962184      1.25340247470939     -0.02579553429697
  H           2.31807430718389     -0.28894212889970     -0.93010639240041
  H           2.50366109794636     -1.29748774040286      1.17192568024597
  O           2.42403021374180      2.94180144722420     -0.15325048134419
  O           2.46715030102147      4.37436904734196     -0.02533255168540
  H           2.77426495423234      2.84494642598869     -1.05823160516219
  H           2.16261231267561      4.51654637259917      0.88771833092676
