20
2 Eopt=-32.1904246213 (Eh) Einter=-3.758324 (kcal/mol)
C  -0.29354373839967101700 1.08038121706336665007 0.44677188003576578934
C  -1.61452099867683207535 0.83834068343028678161 0.77798795047220981047
C  -2.22638725307374141238 -0.33967693007208010769 0.38121851740733569969
C  -1.51196936984891916467 -1.27617089040070852413 -0.34615070674359588176
C  -0.18741726529251395705 -1.03837128506133602457 -0.67188969604193748975
C  0.42973124543196727920 0.14194788259944177145 -0.28062276340195990709
C  1.87518731738419752730 0.41041995419750182394 -0.61482578041730673313
O  2.68790153838952061705 0.57674005264579741858 0.53714893940624053315
H  0.18680219439996426090 1.99974503179573082079 0.74763784201205318869
H  -2.16897715183537664885 1.57229871020887168598 1.34307486884495497215
H  -3.25847038550521572731 -0.52641763095529314764 0.63719503374263108952
H  -1.98527566849813696948 -2.19493680417024705775 -0.65856034232120141958
H  0.36770103847844620715 -1.77180005447464528068 -1.23900975317691441902
H  1.96044777397934444352 1.35253245011910805395 -1.16355654684694709289
H  2.27815012463255239794 -0.39623134961829764578 -1.24006490802295488152
H  2.61805678925227436338 -0.21168619532460247745 1.09251603177605316475
O  1.88817355942585152206 3.69012241335665747144 0.96908221626989488051
O  3.20841476419467142023 3.23776878536185375168 1.24642322776943070828
H  1.94634366715813467152 4.64272549536819578719 1.15993138249349314606
H  3.14824359266785824829 2.27289538910194011123 1.05678848458919372177
20
4 Eopt=-32.1888133540 (Eh) Einter=-2.747238 (kcal/mol)
C  -0.17987351477500845842 1.02031276884697197360 0.52204890245445068064
C  -1.54150481837346520209 0.97324496282475125852 0.76295712201229504146
C  -2.29368945703844673289 -0.08652236193434732769 0.28519994790147384922
C  -1.67779168713330406604 -1.09894235038528198523 -0.43198701508155684659
C  -0.31492139159151566474 -1.05568589032333903788 -0.66822690329366407624
C  0.44399727865392535353 0.00590244913868983277 -0.19239035408360824486
C  1.92801237082128351652 0.06782506129106023740 -0.46396652643998381738
O  2.67042060961217009307 0.71080970379763908085 0.55323365337655261431
H  0.41445515754891265603 1.84529683353700280080 0.88741528307627881578
H  -2.01579959622781856865 1.76647513916084708541 1.32154932296721217000
H  -3.35653512726449188008 -0.12397610044057584544 0.47172915208255045139
H  -2.26028575089086647409 -1.92796008757707060255 -0.80543372002672919407
H  0.16436961827011845050 -1.84910544128998588498 -1.22267505574226165166
H  2.10310185445736186338 0.66427922892054025450 -1.36632660420117191258
H  2.31862348907749193927 -0.94087315342541055774 -0.64359233936996640413
H  2.62210109947973268874 0.17617642664812047104 1.35716985181155225249
O  2.85028553357712555183 -3.45275775935300366370 -0.80766397132507083967
O  1.92266547120146280569 -3.58125948278464312224 -1.87004820640045776869
H  2.61518127662743005146 -4.17889186956562941333 -0.20055354367909833391
H  2.48201021125378096244 -3.67957446562629586495 -2.66286791052377269651
20
1 Eopt=-32.1881676568 (Eh) Einter=-2.342057 (kcal/mol)
C  -0.10304915522055559107 1.08240941584096583838 0.42543527451625379188
C  -1.40765523054083985244 0.86093300034590369840 0.82836129042739337081
C  -2.04951978502109932734 -0.31668524385942831145 0.48270737865088036989
C  -1.37904794008851960818 -1.27234051713502216430 -0.26217912586483183013
C  -0.07133671563231390456 -1.05330758846147487517 -0.65906926307941327003
C  0.57542457590454332284 0.12735066495444152812 -0.32092363841691368131
C  1.99552247455932740827 0.38605772498721763197 -0.76220561639881123650
O  2.77716378324729529226 1.05298508082365294136 0.20714082295744315476
H  0.40801884623007339536 1.99646833736610296306 0.69090341529771159834
H  -1.92473911171688705224 1.60905586314338688858 1.41063428686506053822
H  -3.06839072608453200530 -0.49009520085693608626 0.79503560226798641875
H  -1.87371693834664987399 -2.19388706691995993836 -0.53038534663024261562
H  0.45309660704271503828 -1.80425785542455807686 -1.23169009284821950878
H  1.98986644737110784931 1.04983036833911791419 -1.63428149958341961678
H  2.47123054565305011465 -0.55930676949508650875 -1.05406115772365693850
H  2.88166997573320360360 0.46298319096216272728 0.97154328640237874737
O  2.20097103933735471770 -2.22982223839086080019 1.95096400799190217157
O  3.24971200717540753544 -1.28393329278108803138 2.01861060583710605343
H  1.81620778903973723040 -2.22679032354450923137 2.84722223494197068661
H  4.06299143739286439114 -1.81895030771296251082 1.94653427633526443508
20
6 Eopt=-32.1880467979 (Eh) Einter=-2.266217 (kcal/mol)
C  -0.20848661443280236405 0.88882163570854144652 0.93711283081395202466
C  -1.51772842432604337937 0.69368693002199566244 1.34090342732708989182
C  -2.28944225200914042162 -0.28654810187990198411 0.74099040945115446366
C  -1.74668928551590596498 -1.06879844383128896901 -0.26556306325309592120
C  -0.43559426397840905754 -0.87928258464319786203 -0.66419328370597352507
C  0.34379548709712415278 0.10216060480589730930 -0.06483527899287977458
C  1.76724695727942693324 0.32105439073941260952 -0.51483093837434834583
O  2.60836748472013812972 0.87186697981892724574 0.47666473471881859458
H  0.39704779977085208342 1.65838315751900178263 1.39368839405387934249
H  -1.93585817987583963529 1.31056198680404767387 2.12240988133268126958
H  -3.31140639583917462119 -0.43948114095048396166 1.05395659725315771205
H  -2.34616194912173670062 -1.83186883439512393501 -0.73920581357967218850
H  -0.01514831602335144078 -1.48144589901053702619 -1.45643306903459501811
H  1.77824957508193359779 1.04087721886564832374 -1.34065168054062011649
H  2.18374084005817703513 -0.62283449782439603837 -0.89108971766940381354
H  2.66230455014840083905 0.25189918828370566617 1.21686589780947329587
O  0.78970455278434958934 -0.30037941839736520544 -3.93902627073567357385
O  0.95670808592734890574 1.09857353413970426637 -3.81316681474443752720
H  1.47533771094752030884 -0.56258089733299798674 -4.58194196825140576124
H  0.11107415287999927722 1.46861637455052229662 -4.12773841928974238868
20
7 Eopt=-32.1877315163 (Eh) Einter=-2.068375 (kcal/mol)
C  0.00772898125901369526 1.05788550959785832006 0.65346194641847998863
C  -1.36599527239722307037 1.12699645651996505080 0.80150001250496083482
C  -2.18559610923071589994 0.28358715741693735213 0.07023173548524150323
C  -1.62537109801602719372 -0.63026749391126057898 -0.80673962913852503842
C  -0.25075564172137587704 -0.70436023432649086384 -0.94968185318200326606
C  0.57606203205259298716 0.14091260080145229239 -0.22184309270193885988
C  2.07617305210471059240 0.07832964966496103187 -0.37945719330081389975
O  2.78419263890934987060 0.26192390158957218338 0.82989880819686467905
H  0.65556730664988893675 1.71271403806633415456 1.21827766157606376396
H  -1.79706300074617031370 1.84206302182798697942 1.48623854308766722987
H  -3.25849438886452835717 0.33420496479022371306 0.18084888174150662299
H  -2.26346945803814048048 -1.28955973453353389679 -1.37601425924248066401
H  0.18401066603051044468 -1.42052408527376661240 -1.63212216937684462259
H  2.40857226001289470574 0.89462195893805984692 -1.03014848792985458381
H  2.36459127574169292174 -0.87061316116311926461 -0.85168490794075568662
H  2.54287030942072789230 -0.44437817299467957666 1.44479618504104712073
O  -5.29829172446291973841 -1.16329920663158659089 -0.76030017921231496381
O  -4.87779196657445712759 -1.63325390059036990031 -2.02927968212524589831
H  -5.63758650151920015503 -1.96316315287584131077 -0.31840500689414102942
H  -5.30471044649617340383 -1.02063261031543794921 -2.65545823437783434784
20
3 Eopt=-32.1877172632 (Eh) Einter=-2.059431 (kcal/mol)
C  -0.23317666009647675107 0.87722067825258842610 0.51536809194703092629
C  -1.58175180130205972340 0.64045184272866229058 0.71219642495386192849
C  -2.18263660851913998684 -0.46661273078589038388 0.13642594428237900250
C  -1.42990707670258099249 -1.33501309800907286274 -0.63601637790252385507
C  -0.07915311860471642424 -1.10142301909164008755 -0.82774225481983654262
C  0.52897534962800374370 0.00722792807490013622 -0.25412964007387639498
C  1.99870873826650918836 0.27701885163075223861 -0.46934107858471207919
O  2.65261791137255809048 0.81396500168022389854 0.66226110898651036063
H  0.24428127917395076052 1.73875280429821033046 0.95940985987237104027
H  -2.16970038888351490769 1.31997028489095136194 1.31098007031248098286
H  -3.23534659693268311642 -0.64876355129777352193 0.29202744460795171388
H  -1.89436785432236476368 -2.19943390533933591513 -1.08668481371278136116
H  0.50775542017979102827 -1.78178014276323581910 -1.42811660977899013147
H  2.11912215900224776277 1.03299796439456148534 -1.25308239982871327811
H  2.50317193009379934665 -0.63996814299237148038 -0.80347508831439229393
H  2.59763425401616787624 0.17734073525553739614 1.38807038068410193432
O  -5.39845484252513951873 0.67971790666686904281 1.26235026356488844179
O  -4.68799940223614619583 1.45430391843414374975 2.21270598852388911126
H  -5.84736477342121752088 1.34623270367947056592 0.71091171521370988273
H  -4.94183270484540937417 1.06001288197043286310 3.06704241102691144150
20
5 Eopt=-32.1874982846 (Eh) Einter=-1.922020 (kcal/mol)
C  -0.09810762750687777867 1.02536037376396649279 0.69888595012271481632
C  -1.44873023149099333651 0.84634456294513482622 0.93903337298061717586
C  -2.14566491992692043311 -0.14856038788628009306 0.27387704913602939349
C  -1.48728628882197999594 -0.96522402367851278804 -0.63065124804536321079
C  -0.13420839118528354872 -0.79004171685843782580 -0.86441673281304365339
C  0.57014026820451335631 0.20715784914437518349 -0.20295828779784669260
C  2.04224791990982179613 0.41513393377277502116 -0.46573924804038835390
O  2.77541958672779554007 0.81419613959963443861 0.67400847126981966451
H  0.45366375982953122126 1.80102204491295081468 1.21003408019963032416
H  -1.95791650728367727652 1.48645699290797872472 1.64399905421099035152
H  -3.19973667992658539205 -0.28811051954643418505 0.46004109455976371912
H  -2.02626675759815899625 -1.74191801466749796035 -1.15246061178990921725
H  0.37814893807967608907 -1.42953390781406808330 -1.56847194825681257591
H  2.17032054448843192418 1.23048556662532448946 -1.18630228590971165126
H  2.47691709255467040762 -0.49391050103249917180 -0.90302984593456159246
H  2.72173475397765329831 0.11682919831309240832 1.34170126413012202882
O  -3.18213664414026853322 -3.40270048794692225869 -2.47881262712057548470
O  -2.99194158513330377147 -4.74612884128783640847 -2.90520196589845580704
H  -3.90824300260086543446 -3.10092964735697629308 -3.05290659058082303190
H  -2.42274490325014202341 -5.11698798614701733101 -2.20836826082860371301
