20
-32.1904246213
C  -0.29354373839967107251 1.08038121706336642802 0.44677188003576567832
C  -1.61452099867683163126 0.83834068343028667059 0.77798795047220981047
C  -2.22638725307374141238 -0.33967693007208016320 0.38121851740733564418
C  -1.51196936984891872058 -1.27617089040070874617 -0.34615070674359588176
C  -0.18741726529251398481 -1.03837128506133580252 -0.67188969604193748975
C  0.42973124543196722369 0.14194788259944179920 -0.28062276340195996260
C  1.87518731738419752730 0.41041995419750176843 -0.61482578041730673313
O  2.68790153838952017296 0.57674005264579752961 0.53714893940624053315
H  0.18680219439996420538 1.99974503179573082079 0.74763784201205307767
H  -2.16897715183537709294 1.57229871020887168598 1.34307486884495497215
H  -3.25847038550521572731 -0.52641763095529314764 0.63719503374263097850
H  -1.98527566849813652539 -2.19493680417024661367 -0.65856034232120141958
H  0.36770103847844620715 -1.77180005447464505863 -1.23900975317691419697
H  1.96044777397934444352 1.35253245011910805395 -1.16355654684694687084
H  2.27815012463255195385 -0.39623134961829781231 -1.24006490802295465947
H  2.61805678925227436338 -0.21168619532460247745 1.09251603177605316475
O  1.88817355942585174411 3.69012241335665658326 0.96908221626989465847
O  3.20841476419467053205 3.23776878536185286350 1.24642322776943070828
H  1.94634366715813511561 4.64272549536819578719 1.15993138249349314606
H  3.14824359266785869238 2.27289538910193966714 1.05678848458919372177
