20
Coordinates from ORCA-job BnOH_H2O2_ts_scan E -32.149632914910
  C          -0.15618669560323      0.25199850602264      0.98160062095625
  C          -1.51273129269988      0.22384926319713      1.24754300323142
  C          -2.40964395902173     -0.14077891805757      0.25615276594396
  C          -1.94213277823940     -0.48251865368146     -1.00171113655829
  C          -0.58499507220511     -0.46036735168665     -1.26721191256612
  C           0.32088274030179     -0.08762104568905     -0.28031189793964
  C           1.79072010492812     -0.08059799485469     -0.55897613437432
  O           2.14600553684350      0.14314766362239     -1.90366189779990
  H           0.54173839647275      0.53794232654459      1.75484674044153
  H          -1.87315949431818      0.48999034865844      2.23003220082039
  H          -3.46875222744831     -0.15936405737608      0.46453268860798
  H          -2.63620913492251     -0.77068121173052     -1.77706387623606
  H          -0.21415588442543     -0.73309055018091     -2.24406430210083
  H           2.20173864296089     -1.14598272683874     -0.33255767595448
  H           2.31799536611239      0.60942609545234      0.11106128182659
  H           1.87216004214012      1.03097474646431     -2.17083168779335
  O           2.72071777102551     -2.26138397255312     -0.24026763182984
  O           3.20008059375517     -3.66995366878835      0.21807604204033
  H           3.17239781428379     -2.26903534287686     -1.10593148560682
  H           2.72411165202559     -3.76591791027427      1.05535319054667
