!xtb
!alpb(water)
!scants
!slowconv
!tightscf
%maxcore 2200
%pal
    nprocs 12
end

%geom
    maxiter 1000
    cartfallback true
    scan b 13 16 = 2.0, 0.96, 20 end
end

%output
    jsonpropfile true
    jsongbwfile true
end

* xyz 0 1
C            -0.1914832509485200             0.3357619034819200             1.0437461702185700
C            -1.5670672039751099             0.3066653590591100             1.1950411548247699
C            -2.3784799031012902            -0.0093444033034300             0.1184713228919400
C            -1.8090062204853099            -0.2999068463352000            -1.1102292611525200
C            -0.4340658468429300            -0.2771583797921400            -1.2591013996081899
C             0.3858712892083900             0.0418352638694400            -0.1843613138238500
C             1.8846418774367599             0.0520412174992900            -0.3573524309719700
O             2.3114582490971101             0.5812077707838400            -1.5968306947545099
H             0.4386764465807400             0.5855305691908700             1.8849642391338099
H            -2.0067338525169398             0.5348700967548800             2.1545628065096900
H            -3.4513494537235299            -0.0289838679786500             0.2365503873233500
H            -2.4370455755984199            -0.5477907096495300            -1.9527372135101799
H             0.0210190233739900            -0.5043868738896100            -2.2118855420197701
H             2.2520710325671600            -0.9826873218788500            -0.3431319454792200
H             2.3542300204943500             0.5985041687551800             0.4713887139163400
H             2.0257601025930398             1.5029720106856099            -1.6604673105025600
O             2.7323772875523602            -4.3626927710621697            -0.2821139217223100
O             2.6083335288183900            -2.9442800781142702            -0.1842896130757800
H             2.3818311981812701            -4.5479859543337602            -1.1711877330094500
H             3.0895433732544499            -2.7741356083689701             0.6455724804673501
*
