20
Coordinates from ORCA-job BnOH_H2O2_ts_scan E -32.179558985410
  C          -0.18008761813874      0.34793119258309      0.96963324900261
  C          -1.53680756756969      0.29641373704965      1.23689482840643
  C          -2.42055712954774     -0.14837047604458      0.26754866452193
  C          -1.94088082353326     -0.54633787197560     -0.96907512353473
  C          -0.58378565314170     -0.50093129120171     -1.23352166734106
  C           0.30812280576046     -0.05074340317895     -0.26819237054138
  C           1.78638223685445     -0.01964477906111     -0.55801298142848
  O           2.10144876052903      0.29726766031168     -1.90033099990610
  H           0.50734484653027      0.69768259167798      1.72618080943046
  H          -1.90619514026638      0.60811372689971      2.20257216302096
  H          -3.47934144876971     -0.18455172707239      0.47569017358631
  H          -2.62476655870702     -0.89628107165155     -1.72794883233194
  H          -0.20038259632208     -0.81400099761420     -2.19352514230646
  H           2.20636948189707     -1.03145173465839     -0.39276026434843
  H           2.28975012821833      0.67549465299470      0.12685776777943
  H           1.77625585619511      1.18556341944669     -2.09975514660541
  O           2.89877145363518     -2.48896133024125     -0.29066358859040
  O           3.19579895102659     -3.80556973849475      0.21906314824329
  H           3.49651878458073     -2.43808200459822     -1.05920660716312
  H           2.51662335273492     -3.92350500979724      0.90516081576155
