20
Coordinates from ORCA-job BnOH_H2O2_ts_scan E -32.177228744580
  C          -0.17337275878037      0.32870529280007      0.97134766064196
  C          -1.52989283835231      0.28122726477840      1.23979499754430
  C          -2.41720995559284     -0.14864021730457      0.26688999944620
  C          -1.94098534615091     -0.53579382131729     -0.97445537817507
  C          -0.58402625226019     -0.49437840320415     -1.24018452864793
  C           0.31155831394151     -0.05894501197780     -0.27144718058178
  C           1.78932889138819     -0.03230892223740     -0.56109059109538
  O           2.10671311686971      0.27423623295394     -1.90523682571162
  H           0.51683304091499      0.66688321967466      1.73062354129500
  H          -1.89650250456474      0.58445250162574      2.20923683637683
  H          -3.47591385521993     -0.18164274201264      0.47596650708789
  H          -2.62755478405519     -0.87419113218605     -1.73615970804647
  H          -0.20379501430269     -0.79947925406782     -2.20399667333051
  H           2.20855565224337     -1.04684718958336     -0.38807723484912
  H           2.29435411879070      0.66592457201015      0.11944531637236
  H           1.78331066381936      1.16136920909986     -2.11242674518256
  O           2.87408292412043     -2.45583400188109     -0.27852183860917
  O           3.19087854023296     -3.77517637318343      0.22715362217816
  H           3.45961931138374     -2.40293795814661     -1.05722602814666
  H           2.52460085754004     -3.89658772046703      0.92497314708904
