20
Coordinates from ORCA-job BnOH_H2O2_ts_scan E -32.185049750780
  C          -0.17918209220190      0.36225368676848      0.96263804536160
  C          -1.53171202235669      0.28058557786154      1.24417656995352
  C          -2.41641726821921     -0.17567665581113      0.28118500243238
  C          -1.94218805831318     -0.55516627639828     -0.96340585855276
  C          -0.58924122551896     -0.47990766442279     -1.24200708748420
  C           0.30329329520881     -0.01822517580155     -0.28283950767001
  C           1.77797006369738      0.04879578021559     -0.59119519113586
  O           2.06468553708094      0.40814228069911     -1.92866671884893
  H           0.50902498686225      0.72124669966155      1.71417669858758
  H          -1.89684021635515      0.57813523281773      2.21588426778980
  H          -3.47193034423381     -0.23489019844706      0.50025785183829
  H          -2.62697582293873     -0.91350352351345     -1.71747902950889
  H          -0.20910100944074     -0.77734022751959     -2.20830493818367
  H           2.22069824889435     -0.95004162507524     -0.45701317114658
  H           2.27554549849090      0.73744801983171      0.10455256028844
  H           1.72522208578295      1.29805112274383     -2.09469877538036
  O           2.99123239149693     -2.61025781408650     -0.31530150873770
  O           3.18081310558083     -3.85901303923728      0.35389583252116
  H           3.65287103859288     -2.65899741991484     -1.02911625473888
  H           2.37281392985598     -3.94160323499829      0.88987010827052
