20
Coordinates from ORCA-job BnOH_H2O2_ts_scan E -32.140705390790
  C          -0.16190449807309      0.01992229928852      0.94628466489515
  C          -1.50364068555681     -0.05872459791802      1.26282265197152
  C          -2.44979747204416     -0.20309202094179      0.25870870182861
  C          -2.04734074631090     -0.26995731753743     -1.06529457551898
  C          -0.70518681558185     -0.19782681926766     -1.38832987539997
  C           0.24975988094395     -0.04399062202382     -0.38530799307464
  C           1.68845816360472      0.03622096754413     -0.70904449896702
  O           1.96871486735033      0.22448746465556     -2.03266584004315
  H           0.57596674399834      0.12577500688619      1.72700680595873
  H          -1.81616522575835     -0.00819014283998      2.29465940235696
  H          -3.49761589479208     -0.26420759599366      0.50980877504374
  H          -2.78167727657902     -0.38204066544526     -1.84818833159007
  H          -0.38215470948437     -0.24527913997316     -2.41637321357357
  H           2.14801452312634     -1.09619970667167     -0.38057206009445
  H           2.24565300265551      0.67716110600786     -0.02286854127200
  H           2.89192880500243      0.48395498856629     -2.16835975507948
  O           2.55849172173911     -2.11496016995874     -0.14081198538814
  O           3.34745094303462     -3.56479982239932      0.51415854672959
  H           2.20979526967330     -2.66391976692637     -0.85794456041990
  H           3.67183152501781     -3.19429789967810      1.33892057729253
