20
Coordinates from ORCA-job BnOH_H2O2_ts_scan E -32.174343764580
  C          -0.16986808476053      0.31946553265564      0.97288451318766
  C          -1.52669177436046      0.27629364858237      1.24011130669403
  C          -2.41493693672088     -0.14742769577820      0.26529741199976
  C          -1.93919706872113     -0.53269825294885     -0.97679791597365
  C          -0.58192380827547     -0.49549230224000     -1.24143723253327
  C           0.31473126080511     -0.06619266103596     -0.27081933982574
  C           1.79224398884177     -0.04433008987455     -0.55861277260566
  O           2.11311998552618      0.25441423019684     -1.90365013075075
  H           0.52104746622959      0.65283277981052      1.73362562773674
  H          -1.89297604937390      0.57809371739432      2.21013157085503
  H          -3.47391377448135     -0.17707615747551      0.47351614239734
  H          -2.62642142895299     -0.86635237170791     -1.74001804691639
  H          -0.20251566704098     -0.79916600965862     -2.20599571009290
  H           2.20958514263229     -1.06344470970083     -0.38013039689965
  H           2.29909913053856      0.65452425140804      0.11984271193200
  H           1.79285577641314      1.14119168603759     -2.11688313884661
  O           2.84974204709015     -2.42389790398652     -0.27277275042545
  O           3.18923878705733     -3.75028164460119      0.22122855239773
  H           3.42156998326294     -2.36880505501547     -1.06183296684104
  H           2.53579314625645     -3.88161544668816      0.92892146016626
