20
Coordinates from ORCA-job BnOH_H2O2_ts_scan E -32.161619304860
  C          -0.16135346947952      0.25537162418058      0.98077791229906
  C          -1.51838822893178      0.22980947981725      1.24638875093786
  C          -2.41530619759916     -0.13431440494185      0.25514199912283
  C          -1.94719444255355     -0.47802987893509     -1.00176738563426
  C          -0.58944071887525     -0.45829734614711     -1.26578182102252
  C           0.31618253688495     -0.08759836919965     -0.27904829682254
  C           1.79142362446688     -0.08327431411564     -0.55978786457595
  O           2.13121972637648      0.17305865804781     -1.90719089775406
  H           0.53640606094784      0.54204928130883      1.75409013371417
  H          -1.87881087794817      0.49856677654000      2.22826018010890
  H          -3.47472555069377     -0.15024535924412      0.46254124006438
  H          -2.64096160822561     -0.76530448722305     -1.77784859186070
  H          -0.21812248166305     -0.73116755757608     -2.24251912822878
  H           2.20322447910548     -1.12230320486065     -0.35154929569603
  H           2.30680458887128      0.61764121360923      0.10958398721407
  H           1.83517742304214      1.06052573568405     -2.14996544409025
  O           2.77202211241370     -2.33487659074539     -0.25051411308652
  O           3.21108924619799     -3.68114238920860      0.23257382874846
  H           3.22754548946358     -2.32871364431290     -1.11468978119015
  H           2.72379041016538     -3.76171967730407      1.06791348340748
