20
Coordinates from ORCA-job BnOH_H2O2_ts_scan E -32.155895412810
  C          -0.15903445461532      0.25363681089926      0.98153751302229
  C          -1.51599841881552      0.22779752569571      1.24665512688808
  C          -2.41263150363490     -0.13658123782230      0.25511861674709
  C          -1.94428812167112     -0.48038189972409     -1.00175456395690
  C          -0.58664282819039     -0.46052088215704     -1.26569889860908
  C           0.31885382276737     -0.08885054255395     -0.27871517305990
  C           1.79199807986857     -0.08465930588542     -0.55753492768667
  O           2.13925065195547      0.15689231285893     -1.90431778376305
  H           0.53851066891363      0.54004098849294      1.75507208007369
  H          -1.87675023202856      0.49611056353815      2.22849728685354
  H          -3.47203992172287     -0.15293960408263      0.46240738183770
  H          -2.63793488757868     -0.76810547890693     -1.77773484796387
  H          -0.21529089363252     -0.73413843151899     -2.24217178400388
  H           2.20312381984760     -1.13526723572702     -0.34146646810790
  H           2.31208829067782      0.61256665558164      0.11139901613082
  H           1.85150525987750      1.04394991615399     -2.15852277406546
  O           2.74754214789554     -2.29913165247024     -0.24629763894150
  O           3.20561185248724     -3.67210977319711      0.22311779039797
  H           3.19776615163132     -2.29722582799082     -1.11313585645924
  H           2.72494263793366     -3.76104735581051      1.06015480032174
