20
Coordinates from ORCA-job BnOH_H2O2_ts_scan E -32.182916072410
  C          -0.17613252483949      0.36113381939620      0.96454569556009
  C          -1.53031090661950      0.29059116358028      1.24081484278845
  C          -2.41369271033997     -0.16918340864382      0.27824399416814
  C          -1.93633546989182     -0.56331940682380     -0.96057512099388
  C          -0.58176935418528     -0.49903256885574     -1.23387517556283
  C           0.30959225804202     -0.03376283210436     -0.27527037686048
  C           1.78551525167236      0.02079330336071     -0.57709192151771
  O           2.08180758474002      0.36010880554305     -1.91796781441886
  H           0.51101111682673      0.72277330969672      1.71578125894403
  H          -1.89785171231060      0.59951092445637      2.20807101512453
  H          -3.47051200686642     -0.21979094760409      0.49319240019261
  H          -2.62006239073244     -0.92456731072394     -1.71424960975459
  H          -0.19947851003714     -0.80805615945203     -2.19566742310873
  H           2.22207491808975     -0.98172174813356     -0.42788288212667
  H           2.28396936011211      0.71551505142789      0.11193688293936
  H           1.74594257397656      1.24828191075182     -2.09962659118328
  O           2.94486982390152     -2.54410362917988     -0.29866740749590
  O           3.16290581355128     -3.83663208648126      0.28365046417465
  H           3.60323920497295     -2.53287983780184     -1.01751967235679
  H           2.38579980190319     -3.94562280703518      0.85876633714333
