20
Coordinates from ORCA-job BnOH_H2O2_ts_scan E -32.170822549400
  C          -0.16646497210853      0.30678388147281      0.97494019980792
  C          -1.52350905903203      0.26833852929145      1.24121659797964
  C          -2.41335230015216     -0.14513193222814      0.26337239550788
  C          -1.93881507545487     -0.52504814685845     -0.98080407645248
  C          -0.58129146710849     -0.49257571566886     -1.24465994069716
  C           0.31706326157434     -0.07321765396117     -0.27112747835754
  C           1.79410017771097     -0.05638520219565     -0.55711228941903
  O           2.11910362626910      0.23130535429029     -1.90338152899788
  H           0.52569010034852      0.63219243576261      1.73797347961739
  H          -1.88888999069151      0.56584367125859      2.21291146093859
  H          -3.47255979054837     -0.17103433374992      0.47092539681517
  H          -2.62723582377542     -0.85084018703467     -1.74635278210935
  H          -0.20322257655865     -0.79249877174181     -2.21089603753350
  H           2.20977998524096     -1.08067141568772     -0.37100011792894
  H           2.30310864590675      0.64397278527759      0.11808589303475
  H           1.80199360261942      1.11706951093025     -2.12513804825081
  O           2.82570747460567     -2.39202673928258     -0.26555391751533
  O           3.19042378594422     -3.72635030695451      0.21747650030832
  H           3.38099023180897     -2.33703845660718     -1.06685282215646
  H           2.55796228536696     -3.86265176093938      0.94258601106428
