20
Coordinates from ORCA-job BnOH_H2O2_ts_scan E -32.185791242210
  C          -0.17894354118806      0.36177600484288      0.96170592367146
  C          -1.53019915940003      0.27198199055156      1.24689524266229
  C          -2.41567683296354     -0.18284396581192      0.28392525214415
  C          -1.94350686075335     -0.55262135290106     -0.96436131427224
  C          -0.59177440081294     -0.46935425253459     -1.24662138400206
  C           0.30148657675837     -0.00927267341350     -0.28740041143736
  C           1.77525148885936      0.06551718183217     -0.59934719536914
  O           2.05690646661816      0.43079565314294     -1.93612777187530
  H           0.50988892161808      0.71952048045407      1.71327592307571
  H          -1.89373045934658      0.56193037916000      2.22148821558232
  H          -3.47019124383360     -0.24852212540700      0.50591673181098
  H          -2.62887611484579     -0.90978696541930     -1.71845148395178
  H          -0.21309685403947     -0.75949265907621     -2.21571737201412
  H           2.22284791915496     -0.93066416032027     -0.46966400112861
  H           2.27134244879644      0.75401779320571      0.09765831432810
  H           1.71485008714422      1.32061658734841     -2.09736004723675
  O           3.01497263810276     -2.64081681520331     -0.32132014044585
  O           3.17103169737671     -3.87402738764729      0.38081003243883
  H           3.68353956865142     -2.71993744539971     -1.02599601735676
  H           2.35445977606872     -3.92878072203003      0.90730039903159
