20
Coordinates from ORCA-job BnOH_H2O2_ts_scan E -32.143230990960
  C          -0.15064189806138      0.24450398647364      0.98059628591639
  C          -1.50592947059823      0.21033244977031      1.25059040637503
  C          -2.40520426220440     -0.14949695551670      0.25925702505075
  C          -1.94157903468129     -0.48042475082630     -1.00313630234674
  C          -0.58585084719879     -0.45229553042870     -1.27385334708945
  C           0.32254961881460     -0.08307581897516     -0.28686828815117
  C           1.78672261419589     -0.06789973003064     -0.56864130093516
  O           2.15086959618927      0.13219869482823     -1.90934146908617
  H           0.54937372632731      0.52563912980422      1.75352230269310
  H          -1.86387290782443      0.46709496230117      2.23636458379521
  H          -3.46335182557834     -0.17343648867282      0.47149675942725
  H          -2.63782530095299     -0.76513259740196     -1.77767054887910
  H          -0.21767539026678     -0.71763359515208     -2.25362228448579
  H           2.19924067912911     -1.15252872340633     -0.32813841046413
  H           2.32497862335299      0.60968702049558      0.10424541023422
  H           1.90130069504799      1.02295419242909     -2.19145681137870
  O           2.69063685537438     -2.21989232235080     -0.23231753667357
  O           3.19043036180277     -3.67414383542165      0.23041516980460
  H           3.14739132324343     -2.25221309718507     -1.09355390298308
  H           2.71901896585475     -3.76420144536046      1.06872115483198
