20
Coordinates from ORCA-job BnOH_H2O2_ts_scan E -32.138123089540
  C          -0.17230175139327      0.06927902810791      0.94159014515320
  C          -1.51147227005064     -0.02724517664341      1.25900192689184
  C          -2.45554466766477     -0.20519173462184      0.25683919533220
  C          -2.05465959619541     -0.28766050506461     -1.06809194718390
  C          -0.71625471208739     -0.19722265181585     -1.39516964270513
  C           0.23950081195081     -0.00754376448319     -0.39306359089464
  C           1.65834102857282      0.10197820818895     -0.71909754701325
  O           1.97160273205623      0.26011842375789     -2.01661496108359
  H           0.56486184051851      0.19848064865958      1.71897816010518
  H          -1.82527145976365      0.03381363167550      2.28955675999192
  H          -3.50153715516917     -0.28170275745547      0.51026755268825
  H          -2.78902762554137     -0.42659942976711     -1.84626355365450
  H          -0.39331541668014     -0.25738857554361     -2.42244415015236
  H           2.11327370723874     -1.14308929749805     -0.37607652042849
  H           2.25979802089955      0.64922447089361      0.00558503789154
  H           2.89703145007832      0.52034271679149     -2.15079320349212
  O           2.54631681281293     -2.09545275769660     -0.15414980067623
  O           3.42302002645641     -3.65821095248672      0.50322740202612
  H           2.23247425834552     -2.69236558048853     -0.84410717742562
  H           3.72374608758179     -3.29352839913637      1.33743481028507
