20
Coordinates from ORCA-job BnOH_H2O2_ts_scan E -32.277073247080
  C           0.26320088910694     -0.57170397839554      0.62387321104923
  C          -0.87679132322523     -0.40501163209640      1.39185910751764
  C          -2.07989027011506     -0.07619677801394      0.79063479853019
  C          -2.14419183090473      0.08546786958163     -0.58396841901611
  C          -1.00848291449455     -0.08379145975958     -1.35517779784902
  C           0.19855674625768     -0.41129901896904     -0.75230957761259
  C           1.42920069331634     -0.60401657943557     -1.61093097973320
  O           1.64647914543336      0.55308224274249     -2.35532456268125
  H           1.20245944420836     -0.82674331053351      1.09132792310935
  H          -0.82361893334866     -0.53169654262772      2.46265205281050
  H          -2.96672666076624      0.05421408088192      1.39229619872863
  H          -3.07981616923561      0.34292765835062     -1.05608841563543
  H          -1.04198539937992      0.03889232652843     -2.42711941369313
  H           1.11522153149421     -2.49552088740140     -2.04407383358881
  H           2.30438895633214     -0.80583486443364     -0.95848823937718
  H           2.26047324303551      0.34746620791866     -3.07610276800162
  O           1.28184394306989     -1.67348145556738     -2.52359691503719
  O           3.24284054580687     -1.73808820296577      1.91831583278485
  H           3.44240688336938     -2.67499202651972      2.00974899198927
  H           3.84501360200508     -1.26363810391099      2.49908170136132
