20
Coordinates from ORCA-job BnOH_H2O2_ts_scan E -32.177316569530
  C          -0.14888673194209      0.18375582806585      1.41905270965823
  C          -1.52149972655759      0.05861941397819      1.53979175813882
  C          -2.30243442220887     -0.13503717073219      0.41311662172771
  C          -1.70351339201513     -0.20344147310386     -0.83414487161605
  C          -0.33047563260000     -0.08504429719835     -0.95355053005265
  C           0.45952976681017      0.11000135425474      0.17274392906029
  C           1.95264926596973      0.26349962449476      0.03861886891983
  O           2.68348691783892     -0.16516572885217      1.17045555449309
  H           0.46648076605981      0.34205005065048      2.29261233568985
  H          -1.98223518121101      0.11530162995273      2.51483708229112
  H          -3.37378716072052     -0.23164396836753      0.50563424985910
  H          -2.30835527816809     -0.35378760882214     -1.71604298537786
  H           0.13408496584256     -0.14229898472993     -1.92714269623227
  H           2.19324498486568      1.34314347536160     -0.07379195690162
  H           2.29988565487196     -0.26420420156434     -0.85947945088383
  H           2.54326380944415     -1.11366427479757      1.29590335391919
  O           2.52682267894760      2.86713506406660     -0.34316978194377
  O           2.49514292758284      4.29557501246783     -0.12902509614332
  H           3.10634204210570      2.80819081069402     -1.12604590637255
  H           2.15884551934852      4.36764236935285      0.78072268961308
