20
Coordinates from ORCA-job BnOH_H2O2_ts_scan E -32.167556932020
  C          -0.12126750404143      0.12114946332082      1.37572086633154
  C          -1.48983990485731     -0.01496840002458      1.52477873968986
  C          -2.30198596565407     -0.12739394268974      0.40901936449770
  C          -1.73811673557035     -0.10428046096426     -0.85622521153333
  C          -0.36904631652727      0.02541033469829     -1.00488238371596
  C           0.45251614160747      0.13877285798449      0.11041526697613
  C           1.93781308225283      0.30797821729584     -0.05109461069059
  O           2.70342586512498     -0.21812281520903      1.01481945861112
  H           0.51714826223228      0.21517960253063      2.24181574675391
  H          -1.92356678332035     -0.02973541883035      2.51362735861045
  H          -3.37037877148133     -0.23228244096336      0.52400030183545
  H          -2.36741047305214     -0.19159004613029     -1.72948705280512
  H           0.06916530583827      0.04084699532940     -1.99224485011688
  H           2.17618925545633      1.40843337289119     -0.06058215094305
  H           2.26729909844040     -0.11706360519970     -1.00821376572499
  H           2.56578447289743     -1.17338545729580      1.06662575720642
  O           2.55604813834548      2.75845490520716      0.08000632530192
  O           2.64909076636483      4.22169714875340     -0.08139542999261
  H           3.25708177513078      2.61758761809730      0.74504812628366
  H           1.87864206507758      4.41393899637011     -0.64065597872926
