20
Coordinates from ORCA-job BnOH_H2O2_ts_scan E -32.179821951860
  C          -0.12932523064097      0.10109848172223      1.37784125992660
  C          -1.49982985150663     -0.01822645125441      1.52442160751933
  C          -2.31086798136277     -0.12186038901979      0.40696487543084
  C          -1.74427937595459     -0.10710874884001     -0.85700255856286
  C          -0.37304924454164      0.00548177192616     -1.00286447885165
  C           0.44662649841170      0.11079422650248      0.11384684789715
  C           1.93811414529765      0.25956634088797     -0.04194161774985
  O           2.68608187507109     -0.31141406499743      1.01364029115803
  H           0.50955192714428      0.18801565249373      2.24440863130026
  H          -1.93564248804070     -0.02681980655012      2.51238872490742
  H          -3.38067469355565     -0.21368637743042      0.51985819570781
  H          -2.37261614316580     -0.18785089408551     -1.73154872962627
  H           0.06732677269461      0.01427470342282     -1.98939824791992
  H           2.19503866737034      1.33721717503529     -0.03122910418500
  H           2.25833320097602     -0.15688380108074     -1.00628918636904
  H           2.52420911641278     -1.26419926573999      1.03627260346167
  O           2.63956985951111      2.89291702593357      0.11107236369945
  O           2.64204098436492      4.31367576655005     -0.13388577736546
  H           3.36606662542171      2.80386575166414      0.75556965381273
  H           1.82191711035689      4.44176982803150     -0.64102947634485
