!xtb
!alpb(water)
!scants
!slowconv
!tightscf
!freq
%maxcore 2200
%pal
    nprocs 12
end

%geom
    maxiter 1000
    cartfallback true
    scan b 13 16 = 1.7, 0.96, 20 end
end

%output
    jsonpropfile true
    jsongbwfile true
end

* xyz 0 1
C            -0.1096337711136100             0.2801406038667600             1.3748116092224500
C            -1.4841261745410499             0.2013292620456100             1.5073084360830600
C            -2.2728540949695302            -0.0736335624187900             0.4024966884909400
C            -1.6799120035226700            -0.2734235378101100            -0.8328026765620400
C            -0.3038975041519000            -0.2013762114028200            -0.9633125642820500
C             0.4924766882750300             0.0794691104498700             0.1390492777755900
C             1.9905407832340201             0.1854789624550400             0.0044375707585500
O             2.7024160513026998            -0.3539027455982200             1.1010303559988499
H             0.5145012596294700             0.4978092864836400             2.2289882366934499
H            -1.9411935557405899             0.3584391699899000             2.4729130859005100
H            -3.3461102949138000            -0.1324178479241700             0.5039423271033699
H            -2.2906030858189399            -0.4897902668306300            -1.6966561316519100
H             0.1550328101718800            -0.3621311966953600            -1.9280377839679499
H             2.2721614796218401             1.2534024747093899            -0.0257955342969700
H             2.3180743071838901            -0.2889421288997000            -0.9301063924004100
H             2.5036610979463600            -1.2974877404028600             1.1719256802459701
O             2.4240302137417999             2.9418014472241998            -0.1532504813441900
O             2.4671503010214701             4.3743690473419603            -0.0253325516854000
H             2.7742649542323399             2.8449464259886899            -1.0582316051621901
H             2.1626123126756100             4.5165463725991701             0.8877183309267600
*
