20
Coordinates from ORCA-job BnOH_H2O2_ts_scan E -32.174206601010
  C          -0.08481547596137      0.09578022134665      1.41134304870649
  C          -1.44819328569170     -0.04255775174555      1.60201691912757
  C          -2.29466491095172     -0.14649931400967      0.51142326026380
  C          -1.77034751283618     -0.11313302331418     -0.77050980885855
  C          -0.40660686809736      0.01872142436143     -0.96056004284903
  C           0.44910911337521      0.12446927344064      0.12931073747611
  C           1.93005304219047      0.29828553400897     -0.07899208135584
  O           2.72784025549402     -0.21521262014063      0.96951114485203
  H           0.57955144433409      0.18412810034709      2.25826569571176
  H          -1.85051152635634     -0.06541946634742      2.60389720598941
  H          -3.35896566154161     -0.25263775850209      0.65867273008440
  H          -2.42656065246535     -0.19379545049907     -1.62437108506297
  H           0.00080323391506      0.04245769551555     -1.96088705813691
  H           2.16192898440597      1.38915229199936     -0.11235932177363
  H           2.22977585857569     -0.14217805969130     -1.03915857679651
  H           2.58927943676856     -1.16957404634191      1.03517501147433
  O           2.56180555493874      2.83639685713366     -0.00559264527750
  O           2.61869245743953      4.27116258128093     -0.24708531081321
  H           3.24559704841653      2.73817830966200      0.68336246193240
  H           1.89482123831209      4.40290212666710     -0.88236640684774
