20
Coordinates from ORCA-job BnOH_H2O2_ts_scan E -32.162837464860
  C          -0.12017359354703      0.11514839214275      1.37867592538293
  C          -1.48862642310242     -0.02394797610084      1.52573579908565
  C          -2.30008971321997     -0.12778925062396      0.40865739830514
  C          -1.73566590943474     -0.09281371108108     -0.85616916824106
  C          -0.36686529673665      0.03993587655238     -1.00311875767914
  C           0.45432033412277      0.14399706032029      0.11371182431320
  C           1.93792929727735      0.31521046342498     -0.04688460934281
  O           2.70618005502550     -0.19674913886956      1.02304178905890
  H           0.51739997011162      0.20281764243832      2.24604150355720
  H          -1.92285720472676     -0.04784200854169      2.51418153782747
  H          -3.36838063074053     -0.23517953040578      0.52219791149716
  H          -2.36452803273602     -0.17317444901026     -1.73040420961947
  H           0.07186260550843      0.06465894548729     -1.99003293704927
  H           2.17387831949705      1.42459180265484     -0.06396289272823
  H           2.27143504956842     -0.11157105620845     -1.00171662646735
  H           2.57693462856217     -1.15268003462794      1.08305389079268
  O           2.53681906313794      2.72434470968169      0.06673300045101
  O           2.64773978848390      4.20342234170924     -0.08809343524653
  H           3.23423142945749      2.58565639240750      0.73646840650991
  H           1.88704803775588      4.40259045382180     -0.65702047256099
