20
Coordinates from ORCA-job BnOH_H2O2_ts_scan E -32.174861065770
  C          -0.12388428331796      0.11492444064319      1.37562674143790
  C          -1.49352178435413     -0.01114924921927      1.52412608324413
  C          -2.30541490640071     -0.12205329771630      0.40800431345716
  C          -1.74027335708773     -0.10803972473347     -0.85667989685317
  C          -0.36997319226131      0.01160860815244     -1.00451406823560
  C           0.45085608663283      0.12440101386048      0.11089683315365
  C           1.93957394827052      0.28425826157605     -0.04820393297181
  O           2.69680048489675     -0.26689719144016      1.01145777844812
  H           0.51492808169038      0.20749530895040      2.24160768469543
  H          -1.92815521337949     -0.01906684069716      2.51264267628049
  H          -3.37463594364922     -0.21878349997764      0.52242133203031
  H          -2.36926086512895     -0.19456264948228     -1.73022687823507
  H           0.06914885332087      0.02012760359657     -1.99158778533352
  H           2.18578179730937      1.37144443234517     -0.04511188877082
  H           2.26397776604721     -0.13549059837667     -1.00953971450884
  H           2.54574167362278     -1.22095435978113      1.04726041638614
  O           2.59382695567275      2.82556714540756      0.09572919253543
  O           2.64271324596766      4.26522177717545     -0.10226156835975
  H           3.30589824887063      2.70353983906830      0.75185011444181
  H           1.84446417754215      4.42903590581999     -0.63240155499560
