20
Coordinates from ORCA-job BnOH_H2O2_ts_scan E -32.157393645170
  C          -0.11922166754514      0.10960080756889      1.38123526962820
  C          -1.48762338041607     -0.03121699487884      1.52643414513924
  C          -2.29850477005781     -0.12740561729443      0.40822714576150
  C          -1.73358356717943     -0.08275177925715     -0.85619671733454
  C          -0.36500230753187      0.05184113493213     -1.00171528193790
  C           0.45598496379938      0.14744020923911      0.11652109108734
  C           1.93733545729021      0.31894257331081     -0.04375166991611
  O           2.70934515854413     -0.17594390423045      1.02984669405371
  H           0.51747900088074      0.19165784351164      2.24974055955835
  H          -1.92235526074010     -0.06248912829875      2.51442957780112
  H          -3.36676168699891     -0.23625324509673      0.52048934536838
  H          -2.36213824846469     -0.15680775190955     -1.73118362473749
  H           0.07412479306782      0.08437877371390     -1.98817300331981
  H           2.17116141726079      1.43986814416435     -0.06879303525800
  H           2.27536846625720     -0.10763991722146     -0.99674887525852
  H           2.59075179261746     -1.13265506056271      1.09920986676247
  O           2.51843161983003      2.68872913098477      0.05460774102890
  O           2.64702721937424      4.19038245666400     -0.09312634867242
  H           3.21247590872298      2.55593448508459      0.72896789471490
  H           1.89429686555345      4.39501476474740     -0.66892489662293
