20
Coordinates from ORCA-job BnOH_H2O2_ts_scan E -32.185125282450
  C          -0.12948813878689      0.07512050136207      1.38260003849983
  C          -1.50243254429796     -0.01611677591334      1.52590079205830
  C          -2.31289130353141     -0.09884811919348      0.40609824121882
  C          -1.74355585151835     -0.09222224614808     -0.85651760612132
  C          -0.36966084269311     -0.00810111102983     -0.99913448711308
  C           0.44884554366264      0.07758208793279      0.11965841845814
  C           1.94517121963312      0.19469421684145     -0.02850107298732
  O           2.67255547929252     -0.44382987224818      1.00216338912441
  H           0.51038908653600      0.14518801637125      2.25003100260785
  H          -1.94061811251749     -0.01901825897545      2.51280197445671
  H          -3.38462118092775     -0.16842442366762      0.51642777184412
  H          -2.37139913798007     -0.15731988818043     -1.73267492280746
  H           0.07280194098557     -0.00574430100940     -1.98480457934651
  H           2.22977007566378      1.25659738385691      0.02861691119426
  H           2.25633571264273     -0.18861065986996     -1.00950297786287
  H           2.48114091421316     -1.39128850708096      0.98068831839425
  O           2.70413379913519      3.02754293982238      0.17164980686033
  O           2.58877279006923      4.40107117598909     -0.20764483347752
  H           3.43997343537466      3.05377936916422      0.80965976390288
  H           1.75336888930880      4.41857539714807     -0.70642007105741
