20
Coordinates from ORCA-job BnOH_H2O2_ts_scan E -32.273599937940
  C          -0.31630988690446      0.20432969620837      1.38390205807900
  C          -1.67293505297680     -0.02361050220410      1.50803754336200
  C          -2.44117352330859     -0.30640022867254      0.39145290966705
  C          -1.84489924348253     -0.39051534619954     -0.85303349744473
  C          -0.48449348173811     -0.18174759172266     -0.98141461128255
  C           0.28777861345871      0.12060747967110      0.13718616817199
  C           1.77831469816346      0.34687235878865     -0.00367307736198
  O           2.44935114986268     -0.42991087419952      0.93320542029733
  H           0.27897650345372      0.41094764285307      2.26113856986399
  H          -2.12871093735336      0.01791401809191      2.48313428658336
  H          -3.50485104223946     -0.47943309990196      0.49774727777208
  H          -2.44041333470291     -0.61121915186509     -1.72439484965659
  H          -0.02545438823497     -0.25433174595668     -1.95051148004316
  H           2.15563780992910      1.94820726230508      1.09537667534786
  H           2.07781037806956      0.09068086850936     -1.02039782693863
  H           3.38600673755851     -0.51880821252505      0.71292787873328
  O           2.10788240222886      1.72968714245334      0.08618322075724
  O           3.46853021261104      4.19642353177348      0.03726107826661
  H           3.01782699686073      3.35303343635557     -0.18546321346120
  H           3.19971716300921      4.83790024140871     -0.62756865286657
