!xtb
!alpb(water)
!scants
%maxcore 2200
%pal
    nprocs 12
end

%geom
    cartfallback true
    fullscan true
    scan b 13 16 = 2.0, 0.98, 20 end
end

%output
    jsonpropfile true
    jsongbwfile true
end

* xyz 0 1
C            -0.1430781331944200             0.1949317536212600             1.3311209306384799
C            -1.5163449348669000             0.1091696790872000             1.4802279541102801
C            -2.3209985396542501            -0.1278517656253800             0.3781539010144600
C            -1.7463040901611300            -0.2820414309825100            -0.8734968559646700
C            -0.3726321961925000            -0.2051527822014000            -1.0211321559498401
C             0.4399318122141100             0.0322754283004200             0.0815357645271500
C             1.9370561929184500             0.1337444599151400            -0.0774932414370400
O             2.6587472777756802            -0.4350690529763800             0.9984911052376600
H             0.4897945148642100             0.3894369738384300             2.1850847996966798
H            -1.9584010315558500             0.2341444681291400             2.4577515464780202
H            -3.3927892633724999            -0.1897575908634100             0.4924512846498700
H            -2.3700158380098699            -0.4655069586676500            -1.7361467975618801
H             0.0735040261981500            -0.3244226651076900            -1.9979519334494500
H             2.2110498494720101             1.1975276334001499            -0.0973267720862600
H             2.2485410264446601            -0.3193455194090500            -1.0286680094786400
H             2.4420532484394601            -1.3764251059488100             1.0548980899182800
O             2.5932470401122001             3.1585414014112998            -0.0059481813330600
O             2.7500252902310098             4.5768313965624596             0.0180549178249400
H             3.4742108915705399             2.8657859760540001             0.2986491244357300
H             1.8509946310313199             4.8938106266343002             0.2428404065756900
*
