20
Coordinates from ORCA-job BnOH_H2O2_ts_scan E -32.181472896230
  C          -0.15408973026008      0.21188359138106      1.40398481603247
  C          -1.52776625722647      0.09598518789137      1.52319260848908
  C          -2.30444199936848     -0.13625242418823      0.40101130893623
  C          -1.70044537891615     -0.25216264760493     -0.84030012159699
  C          -0.32658815409517     -0.14177317796814     -0.95795128930324
  C           0.45911034991853      0.09155459175199      0.16391058473566
  C           1.95473677383680      0.23173077597203      0.03212964045447
  O           2.67449888100738     -0.16247378445631      1.18301399531361
  H           0.45748710753106      0.39820120948901      2.27460391701732
  H          -1.99209132911506      0.18976056069369      2.49363177448175
  H          -3.37645263826510     -0.22647805649955      0.49222441139012
  H          -2.30207431574201     -0.43380873138061     -1.71846187027828
  H           0.14235289239821     -0.23631876652649     -1.92657506816432
  H           2.20523518082960      1.29787304866018     -0.12036309048241
  H           2.30254205910321     -0.33017642521093     -0.84525951702788
  H           2.52412352693187     -1.10473183738724      1.34015238614336
  O           2.52121281254950      2.94788438993015     -0.38040314415299
  O           2.50402935220427      4.33402644211699     -0.01070376228512
  H           2.88967078565495      2.98934973863537     -1.28234283995018
  H           2.39754185528745      4.29655323987218      0.95560113809370
