20
Coordinates from ORCA-job BnOH_H2O2_ts_scan E -32.171544868250
  C          -0.12281682127924      0.11913972547481      1.37513980026631
  C          -1.49181199846267     -0.01275423950502      1.52438246275843
  C          -2.30402594093783     -0.12598189197651      0.40874837901173
  C          -1.73981171125746     -0.10820612689442     -0.85636168012462
  C          -0.37022460253780      0.01721159164379     -1.00503547213584
  C           0.45114629145202      0.13193069895867      0.10999843765031
  C           1.93811694106423      0.29749718632493     -0.05082640011583
  O           2.70009981592167     -0.23959886063651      1.01257813808635
  H           0.51591429875341      0.21365608435474      2.24095768133512
  H          -1.92574277696151     -0.02348819284981      2.51318892321855
  H          -3.37274793922882     -0.22738718708501      0.52379718645429
  H          -2.36909641846531     -0.19631255718309     -1.72954477529315
  H           0.06820513241281      0.02860414908358     -1.99237366921143
  H           2.17973784337225      1.39066900474651     -0.05513618151181
  H           2.26502014049274     -0.12623010871712     -1.00950083804170
  H           2.55602696170607     -1.19430002229879      1.05759542278664
  O           2.57450449780358      2.79235165751394      0.08725759400403
  O           2.64934785181162      4.24302818498329     -0.08761639810966
  H           3.28004556680076      2.65584424012328      0.74799439234734
  H           1.86670464180384      4.42495358911030     -0.63414712552865
