20
Coordinates from ORCA-job BnOH_H2O2_ts_scan E -32.275552776660
  C          -0.25364020555269     -0.42206420564432      1.42266828576488
  C          -1.61146617382206     -0.61738769584368      1.23435001845023
  C          -2.22577576747367     -0.16303066277146      0.08031558297111
  C          -1.47922407454327      0.48597429968252     -0.89023133502626
  C          -0.12167023958807      0.67796851109910     -0.70923162907971
  C           0.49512691416062      0.22368586125783      0.45038623924316
  C           1.97681888454948      0.48019553815313      0.63475361560179
  O           2.45696512838739     -0.24056661856204      1.72846743647416
  H           0.23559637780805     -0.77684731141221      2.31633557621848
  H          -2.18873963694799     -1.12467305654402      1.99237506295902
  H          -3.28461024987157     -0.31524031530724     -0.06473952106546
  H          -1.95418409022177      0.84076709635253     -1.79217973051240
  H           0.46530191146401      1.18444775801082     -1.46147617002870
  H           1.72545175153224      2.22265521112515      1.62781498859718
  H           2.50798333738977      0.19417704634831     -0.28855967472694
  H           3.41422255787002     -0.11962934752375      1.80778625681030
  O           2.25189435603229      1.85123334344320      0.77665449511252
  O           2.29251930357887      3.00111784533663     -1.87476143624002
  H           2.42237039083101      2.71677799859879     -0.95790979176617
  H           2.22365129868175      3.96106562937221     -1.85172239191081
