20
Coordinates from ORCA-job BnOH_H2O2_ts_scan E -32.181622575670
  C          -0.13230174070702      0.09259345176362      1.37918104832191
  C          -1.50311742493676     -0.02424100087247      1.52503313379377
  C          -2.31399075356380     -0.12324356752186      0.40702257765239
  C          -1.74708346118089     -0.10614230540306     -0.85674930192829
  C          -0.37550843214866      0.00362945136825     -1.00189001450502
  C           0.44387581989267      0.10407941886142      0.11538368113836
  C           1.93645204428621      0.24718469220444     -0.03920912770028
  O           2.68050044451031     -0.33186172140566      1.01460612573327
  H           0.50685662112219      0.17586812531779      2.24593272982491
  H          -1.93924561178710     -0.03476365590602      2.51282756230409
  H          -3.38398927346875     -0.21342638796101      0.51936399949310
  H          -2.37530538101507     -0.18313241046398     -1.73170436229957
  H           0.06521324838237      0.01391816991323     -1.98826459304913
  H           2.19877263873850      1.32092393879597     -0.02544190901051
  H           2.25473664025513     -0.16784982141507     -1.00487719665972
  H           2.51425359655181     -1.28405492843195      1.03187869328592
  O           2.66153867292861      2.92716669588849      0.12003121583013
  O           2.64464156569222      4.33916747906575     -0.14928431950783
  H           3.39114047751379      2.85605755755411      0.76295276950485
  H           1.82115208319860      4.44875374381953     -0.65569683437597
