20
Coordinates from ORCA-job BnOH_H2O2_ts_scan E -32.278269206240
  C          -0.21729204996704     -0.34621370316850      1.49893919845704
  C          -1.57622648516619     -0.56978580719686      1.35520697540384
  C          -2.22314003589148     -0.19277790767200      0.19127895384858
  C          -1.50847993989558      0.40619612579430     -0.83401812855306
  C          -0.14978472334052      0.62497175458847     -0.69777096873431
  C           0.49979539506839      0.24861708440676      0.47177463588041
  C           1.98012515989827      0.53788526066883      0.60871515855194
  O           2.50823156084398     -0.16580755812711      1.69171820538678
  H           0.29758744817472     -0.64152420709193      2.39983993123092
  H          -2.12868972095690     -1.03852181011865      2.15543992304611
  H          -3.28287403109864     -0.36662862946397      0.08092610221813
  H          -2.00990454646665      0.69898762845176     -1.74370351957708
  H           0.41392006903925      1.09103412771104     -1.49247821048221
  H           1.72049189229430      2.27346489770819      1.57262754603924
  H           2.48998917537204      0.26066656056493     -0.32837417446111
  H           3.46431095823771     -0.02246625306064      1.74269687317432
  O           2.22581563638557      1.91796063017104      0.73866704585604
  O           2.25546116874665      2.84452164509960     -2.01795055828913
  H           2.35615602736667      2.70170652409780     -1.06546334246151
  H           2.23309881561981      3.79834056180849     -2.14697576868856
