20
Coordinates from ORCA-job BnOH_H2O2_ts_scan E -32.275837201130
  C          -0.21729229177694     -0.34800586706852      1.49769864376586
  C          -1.57625083003346     -0.57169338389564      1.35471024117038
  C          -2.22424031041399     -0.19424856738224      0.19146937638555
  C          -1.51031552693769      0.40582703853240     -0.83358698709724
  C          -0.15154898529745      0.62519434458205     -0.69798179968579
  C           0.49910963739011      0.24801093757647      0.47074414254807
  C           1.98036641741532      0.53526592217820      0.60524657723336
  O           2.50584842431999     -0.15615724422558      1.69730753144866
  H           0.29810602877156     -0.64387761671235      2.39811680585192
  H          -2.12805521715930     -1.04091066546735      2.15506477338529
  H          -3.28395052634113     -0.36844212994143      0.08169537330419
  H          -2.01151117663551      0.70012988803323     -1.74305173045084
  H           0.41012278763493      1.09293181556887     -1.49343236870692
  H           1.72713800509753      2.28933880584405      1.57481649783256
  H           2.48860990604410      0.24232244611984     -0.32839095270472
  H           3.46230855326468     -0.01466935101633      1.74745953506122
  O           2.23187593687382      1.91441335784112      0.71564762263940
  O           2.25442180263216      2.84864719263163     -2.01583812322863
  H           2.35444890519580      2.69228788791788     -1.06492534415948
  H           2.23940023421981      3.80426211405526     -2.13167393674645
