20
Coordinates from ORCA-job BnOH_H2O2_ts_scan E -32.165795075840
  C          -0.08150556749568      0.10572643098128      1.41167175840032
  C          -1.44421378337439     -0.03958247431432      1.60118897530484
  C          -2.28969520290151     -0.14553877277341      0.50998594239718
  C          -1.76504141163751     -0.10657170759823     -0.77176548971485
  C          -0.40211885633318      0.03257867833706     -0.96100482573343
  C           0.45306365598668      0.13930698584085      0.12970825181554
  C           1.93083369795415      0.31836383201605     -0.07895055020000
  O           2.73410404448216     -0.17189188826297      0.97561036322852
  H           0.58193771914111      0.19519822652569      2.25919409842408
  H          -1.84709299403787     -0.06669458089421      2.60275200707760
  H          -3.35346586283184     -0.25767658638526      0.65661837624075
  H          -2.42048883582040     -0.18868563075365     -1.62608618972712
  H           0.00562724941320      0.06043041645794     -1.96104688194760
  H           2.15802019956751      1.42342405736045     -0.12384923314734
  H           2.23640447588939     -0.12581960785348     -1.03532779411242
  H           2.61297654582252     -1.12763383179427      1.05251390381008
  O           2.52367667391255      2.75943889280653     -0.02859862830278
  O           2.61726392483398      4.22306058293787     -0.23404861935529
  H           3.20962590007984      2.64660817518837      0.65733682701810
  H           1.88868020161363      4.38658572734927     -0.85480641362979
