20
Coordinates from ORCA-job BnOH_H2O2_ts_scan E -32.138405828810
  C          -0.14061322961063     -0.20323872505962      1.49861557018617
  C          -1.51194213711862     -0.28114586700522      1.64200009499934
  C          -2.33876729976332     -0.10514093465707      0.54301578131118
  C          -1.78911403249791      0.14528212305301     -0.70676032298136
  C          -0.41981186372594      0.21939546560265     -0.86055672494668
  C           0.42055018015504      0.03934300920043      0.24236333318877
  C           1.87069329218927      0.11925814256894      0.06870960351438
  O           2.62354785420591     -0.29275047716304      1.10685081950633
  H           0.51189605263770     -0.34108245728641      2.34620334575172
  H          -1.93957519156303     -0.47567055946428      2.61335534510235
  H          -3.41014185851112     -0.16015076997584      0.65878080104240
  H          -2.43402671987212      0.28451842716870     -1.56058425538346
  H           0.01003649664038      0.42320960082706     -1.82917948401782
  H           2.06822028666462      1.45392845531376     -0.03080679560726
  H           2.22795834707665     -0.13683138631164     -0.92824919424551
  H           3.55632185493574     -0.41313556177950      0.86780134486123
  O           2.30128568889850      2.50153644300519     -0.11905045754418
  O           2.75802932138980      4.27306850936890     -0.59157143289118
  H           2.14506755083333      2.87564014196805      0.75722543846826
  H           2.83897718130007      4.13459334579750     -1.53706693246830
