20
Coordinates from ORCA-job BnOH_H2O2_ts_scan E -32.177591907680
  C          -0.12575687040112      0.10994715598531      1.37624961907599
  C          -1.49591322382402     -0.01144821575975      1.52395943493007
  C          -2.30745300001759     -0.11980752622411      0.40730487372458
  C          -1.74151557787245     -0.10801746891509     -0.85699955237738
  C          -0.37062916635533      0.00679726934249     -1.00398307191818
  C           0.44966794160130      0.11717434324436      0.11188803238061
  C           1.93986985638114      0.27121488745674     -0.04545592392212
  O           2.69236380922178     -0.29222228115491      1.01115360344139
  H           0.51316102835932      0.20052461342577      2.24238570003713
  H          -1.93117831078544     -0.01770807515395      2.51219892511184
  H          -3.37706375284463     -0.21287442873480      0.52107597877096
  H          -2.37021355301306     -0.19256622701553     -1.73093821200080
  H           0.06912591076365      0.01354082567525     -1.99080330126185
  H           2.19139421929790      1.35322566772566     -0.03618999696080
  H           2.26218477194081     -0.14524383968200     -1.00898822829835
  H           2.53518105544475     -1.24561146629881      1.03874098878354
  O           2.61543378328142      2.85884467367416      0.10471663810906
  O           2.63784842143731      4.28862341875587     -0.11669772915321
  H           3.33581212966477      2.75312315960533      0.75411963257321
  H           1.82627230198385      4.43311043921955     -0.63264153319930
