20
Coordinates from ORCA-job BnOH_H2O2_ts_scan E -32.274697055600
  C          -0.05152726883105     -0.59145662930961      1.33554250627585
  C          -1.28014323155546     -1.22276071318793      1.26280649416627
  C          -2.23385198134595     -0.78769001582327      0.35744848780382
  C          -1.95078963165604      0.27828423193980     -0.47835384862167
  C          -0.72308248532570      0.91373376008105     -0.40406258226462
  C           0.23199424273974      0.48732206313149      0.50699083800292
  C           1.59057201344816      1.17057616283083      0.59513297128381
  O           1.88651492058972      1.57580068686792      1.91306839403191
  H           0.68823207371249     -0.94608176850873      2.03739622216986
  H          -1.49144505972311     -2.05862244078225      1.91229895607713
  H          -3.19154785657965     -1.28206475276966      0.30072919804938
  H          -2.68604711712806      0.61816714754848     -1.19170855918286
  H          -0.49673277992939      1.73664361920744     -1.06458608449924
  H           1.26644188922755      3.04066106552583      0.26388475223705
  H           2.36062363247399      0.47696914013565      0.21860763856116
  H           2.19392651985752      0.83403516048396      2.44649592049479
  O           1.68560852673444      2.30440813118732     -0.20909897603883
  O           4.02011271489680      2.17349051943628     -1.97811155676023
  H           3.22769813013713      2.27531032941848     -1.43205566408007
  H           4.30203452252119      3.06390122775847     -2.21132922986002
