20
Coordinates from ORCA-job BnOH_H2O2_ts_scan E -32.149517421500
  C          -0.07898874651459      0.09704513055431      1.41724133303461
  C          -1.44196490445871     -0.04974922401418      1.60143199134798
  C          -2.28524333501452     -0.14056731949428      0.50699326092171
  C          -1.75833959831952     -0.08458706319819     -0.77359206689929
  C          -0.39564670488101      0.05654723326764     -0.95897061278735
  C           0.45830940345962      0.14633243626067      0.13583424219250
  C           1.92932086967798      0.32268927147332     -0.07022002784567
  O           2.74246831914492     -0.11851047603936      0.99159675483018
  H           0.58199154320764      0.17556973977054      2.26762090572926
  H          -1.84711301786287     -0.08983627183059      2.60154348523583
  H          -3.34931292913315     -0.25368887797633      0.65002695022450
  H          -2.41264320514858     -0.15417221147923     -1.62978184919119
  H           0.01404655771261      0.09870315561117     -1.95753599149620
  H           2.15009521183074      1.46433914672412     -0.13714685375422
  H           2.24978070710902     -0.11409557248452     -1.02415504618548
  H           2.65530007412400     -1.07579491288682      1.09317289818299
  O           2.47050021372593      2.65212510480268     -0.06042811891862
  O           2.61447520737256      4.19257461267262     -0.24133630700506
  H           3.16913168836037      2.55678989566974      0.61507127916533
  H           1.88242441987188      4.37891312776825     -0.84627034893543
