20
Coordinates from ORCA-job BnOH_H2O2_ts_scan E -32.184208334060
  C          -0.13068966131863      0.07253059344251      1.38387887546034
  C          -1.50325987405308     -0.02667927202866      1.52617587379268
  C          -2.31305865077149     -0.10599499503291      0.40576242111066
  C          -1.74343055449679     -0.08738816030086     -0.85670094363936
  C          -0.37008496761759      0.00468991395292     -0.99834241094566
  C           0.44798619397268      0.08607224978076      0.12127637053493
  C           1.94339689500723      0.21014961308565     -0.02796373271965
  O           2.67540711380981     -0.40378288183803      1.01421831569874
  H           0.50822763128045      0.14033694932431      2.25218985774219
  H          -1.94154374042152     -0.03871484128922      2.51297608495662
  H          -3.38441605966103     -0.18225833689296      0.51532161005089
  H          -2.37078749679941     -0.14942834810207     -1.73344208243764
  H           0.07276451757163      0.01619036832232     -1.98376376163657
  H           2.22166760253578      1.27587342181619      0.00876763614935
  H           2.25711418016879     -0.18913672543626     -1.00178657764955
  H           2.49354470177347     -1.35332924214377      1.00891728473409
  O           2.68752310233384      2.99382679313051      0.14580539807517
  O           2.60497895365581      4.38076076568382     -0.19938042959391
  H           3.42167640575326      2.98779091603606      0.78658749728410
  H           1.77157548154117      4.42911814366122     -0.69940140912107
