20
Coordinates from ORCA-job BnOH_H2O2_ts_scan E -32.138779526780
  C          -0.17499678033051     -0.21007733977485      1.46093915488797
  C          -1.55081382746542     -0.27613117686741      1.56487889220239
  C          -2.34525045823740     -0.07409978725389      0.44691673454142
  C          -1.75802619179712      0.19081597482580     -0.78226717891020
  C          -0.38383403106281      0.25318103722905     -0.89609592646473
  C           0.42299295452439      0.04720461603380      0.22586929065600
  C           1.88218012022764      0.11867249776363      0.09459155718941
  O           2.59373090280413     -0.34106026181687      1.14887328114874
  H           0.45194541061195     -0.36891667957322      2.32400226654982
  H          -2.00693915290212     -0.48175050324452      2.52103198405468
  H          -3.41996135984911     -0.12038585922012      0.53192652966096
  H          -2.37692469480036      0.35048902447436     -1.65176083935127
  H           0.07498688291484      0.46767163512703     -1.84910492405633
  H           2.11388812723438      1.42197027139295      0.03151465815748
  H           2.25748288141324     -0.14621717101683     -0.89410239827239
  H           3.53245304151202     -0.46408122439363      0.93844896387496
  O           2.31193701494530      2.48934229499234     -0.03064386148704
  O           2.74369625733378      4.24377971540075     -0.45469425643204
  H           2.10991734398332      2.83359345168385      0.84925423024199
  H           2.87012733320423      4.12662640940931     -1.39848228034543
