20
Coordinates from ORCA-job BnOH_H2O2_ts_scan E -32.140484489190
  C          -0.08298432941073      0.09290336295734      1.42548439886174
  C          -1.44783077792280     -0.04057883752827      1.60170177658705
  C          -2.28609091827651     -0.12079196994877      0.50208024496972
  C          -1.75277267737248     -0.06759756221945     -0.77630781850991
  C          -0.38835659609141      0.06061083858778     -0.95542583070080
  C           0.46102714330165      0.13737104946254      0.14542905378435
  C           1.92784428168903      0.29523221222598     -0.05265257969480
  O           2.74221405311261     -0.11544715558859      1.00991405211789
  H           0.57559559680549      0.16305237920548      2.27812852294990
  H          -1.85906825625134     -0.07817743071248      2.59924235866280
  H          -3.35188626669249     -0.22292231031439      0.63951180224220
  H          -2.40398005579253     -0.12821065346152     -1.63533553517105
  H           0.02658953651386      0.10195852327306     -1.95164307354633
  H           2.14359133322663      1.47097410981835     -0.12701462459916
  H           2.26108010532599     -0.11415968110888     -1.01255264677177
  H           2.76532595891188     -1.08086427401324      1.05955547584062
  O           2.43472857289330      2.58701419368500     -0.07123994001204
  O           2.59309272726828      4.20267950755345     -0.25425782899587
  H           3.14091762064560      2.53468407743389      0.59862060917733
  H           1.84955472238030      4.38289654586427     -0.84214253934547
