20
Coordinates from ORCA-job BnOH_H2O2_ts_scan E -32.151358328000
  C          -0.11852735075855      0.10407623632516      1.38385455722020
  C          -1.48705179301795     -0.03626399314173      1.52717907402300
  C          -2.29727305220489     -0.12558001759748      0.40785886890453
  C          -1.73166421625385     -0.07459962309439     -0.85618397771760
  C          -0.36315347096977      0.05982292717001     -1.00045766780384
  C           0.45747734133436      0.14807916922750      0.11928120220470
  C           1.93615650949451      0.31815896238029     -0.04019780390446
  O           2.71253042399542     -0.15912933494220      1.03497008751697
  H           0.51740444957318      0.18121494589469      2.25330006660297
  H          -1.92251664442075     -0.07242355512375      2.51463747084232
  H          -3.36568193403818     -0.23380256175132      0.51889060447243
  H          -2.35997148444633     -0.14315460256460     -1.73174129996401
  H           0.07662153290470      0.09771030803434     -1.98635506188758
  H           2.16712223259127      1.45402720539821     -0.07205437078139
  H           2.27982443782153     -0.10247648770916     -0.99345995756397
  H           2.60966660709008     -1.11724721967002      1.11107356426670
  O           2.49700076102039      2.65247506837732      0.04395425728992
  O           2.64515473532542      4.18522266139150     -0.09292700632915
  H           3.18984195509925      2.52967359239426      0.72121801238498
  H           1.90563073412451      4.39484324417289     -0.68174474193035
