!xtb
!alpb(water)
!opt
!tightscf
!slowconv
%maxcore 2200
%pal
    nprocs 12
end

%geom
    maxiter 1000
    recalc_hess 100
    constraints 
     { a 6 13 17 170.0 c }
     { b 13 17 2.0 c }
     { a 13 17 16 170.0 c }
    end
end

%output
    jsonpropfile true
    jsongbwfile true
end

* xyz 0 1
C            -0.1612928337730688             1.0783477577452405             0.6100781444370639
C            -1.5129951317909394             1.2965161403984129             0.4056364027298688
C            -2.3028648519369681             0.2956555601294830            -0.1338558440325076
C            -1.7382391236700634            -0.9250346033024835            -0.4657284432998632
C            -0.3884342254024790            -1.1452808602302882            -0.2573241287516415
C             0.4102287420277486            -0.1445807049237591             0.2834032889199037
C             1.8870489219527773            -0.3804318408890360             0.4703086893459633
O             2.6057909810259545            -0.3254914992321266            -0.7560649709400212
H             0.4512106683048484             1.8609778671638439             1.0345922072634606
H            -1.9492880611157124             2.2487837478113488             0.6674646031277360
H            -3.3569579385396051             0.4656314312064176            -0.2937250839939601
H            -2.3516083545126194            -1.7083571310486354            -0.8848891069400038
H             0.0552236668664569            -2.0966166980966134            -0.5107199048035349
H             2.0616656883291178            -1.3867141630934614             0.8586392244083560
H             2.3048459455865653             0.3499683008248309             1.1741617725564264
H             2.4527325864246521             0.5322088648357620            -1.1760504284658115
O             2.6693273157780446            -2.8397712638874544            -1.9747264408878340
O             2.0732680754326536            -3.5325228054727695            -0.8842293416245951
H             2.7494512950786496            -1.9190383628340424            -1.6289897697081830
H             2.2514687558999946            -4.4642141917310818            -1.1013719736853114
*
