20
Coordinates from ORCA-job BnOH_H2O2_ts_opt_IRC_B E -32.139446537440
  C      -0.149674     -0.226997      1.503127
  C      -1.522064     -0.298628      1.648503
  C      -2.349402     -0.120453      0.550283
  C      -1.800022      0.114682     -0.702410
  C      -0.430243      0.184018     -0.857038
  C       0.410219      0.016091      0.246611
  C       1.862926      0.115176      0.066117
  O       2.616163     -0.322567      1.096716
  H       0.502885     -0.363988      2.350857
  H      -1.949428     -0.487890      2.621037
  H      -3.421061     -0.163971      0.668596
  H      -2.444996      0.247919     -1.557130
  H      -0.000891      0.380517     -1.827417
  H       2.112026      1.397467     -0.086131
  H       2.213077     -0.170103     -0.939492
  H       3.548651     -0.445053      0.856686
  O       2.327830      2.525374     -0.140050
  O       2.858760      4.281421     -0.580580
  H       2.124022      2.852034      0.763944
  H       2.879578      4.194399     -1.536146
20
Coordinates from ORCA-job BnOH_H2O2_ts_opt_IRC_B E -32.142893654780
  C      -0.148084     -0.225662      1.501415
  C      -1.521504     -0.298627      1.647743
  C      -2.349179     -0.121156      0.550316
  C      -1.800468      0.114651     -0.702058
  C      -0.430597      0.185340     -0.856419
  C       0.410581      0.019270      0.245296
  C       1.870392      0.121434      0.054624
  O       2.617760     -0.322277      1.099182
  H       0.502993     -0.363706      2.350488
  H      -1.949121     -0.487887      2.620803
  H      -3.421023     -0.164339      0.668601
  H      -2.445032      0.247920     -1.557112
  H      -0.000984      0.380522     -1.827394
  H       2.099390      1.373362     -0.076448
  H       2.209462     -0.174017     -0.934811
  H       3.547780     -0.444404      0.856559
  O       2.342127      2.567415     -0.144754
  O       2.849549      4.258275     -0.573389
  H       2.125588      2.851860      0.757200
  H       2.878724      4.191478     -1.533757
20
Coordinates from ORCA-job BnOH_H2O2_ts_opt_IRC_B E -32.150575410580
  C      -0.146635     -0.225841      1.501079
  C      -1.522357     -0.298487      1.646306
  C      -2.348506     -0.121508      0.550715
  C      -1.801116      0.114849     -0.701745
  C      -0.431509      0.185638     -0.855337
  C       0.409038      0.020290      0.243100
  C       1.879319      0.148510      0.041709
  O       2.620099     -0.327062      1.104344
  H       0.503113     -0.362988      2.348160
  H      -1.947861     -0.487704      2.619771
  H      -3.421237     -0.165016      0.668836
  H      -2.445253      0.247870     -1.556966
  H      -0.001223      0.380556     -1.827134
  H       2.087055      1.331026     -0.068699
  H       2.205509     -0.183652     -0.930167
  H       3.547770     -0.443306      0.855729
  O       2.366028      2.631675     -0.172394
  O       2.835358      4.218375     -0.558964
  H       2.123775      2.861346      0.769370
  H       2.876988      4.184880     -1.531627
20
Coordinates from ORCA-job BnOH_H2O2_ts_opt_IRC_B E -32.159038531150
  C      -0.145896     -0.225393      1.497107
  C      -1.521022     -0.298312      1.645458
  C      -2.349229     -0.121678      0.550564
  C      -1.801751      0.114956     -0.701232
  C      -0.431333      0.185730     -0.854671
  C       0.407567      0.019673      0.243083
  C       1.880416      0.167843      0.043775
  O       2.621668     -0.330594      1.106225
  H       0.503842     -0.362838      2.347692
  H      -1.947597     -0.487702      2.619713
  H      -3.421248     -0.165392      0.668929
  H      -2.445671      0.247875     -1.557102
  H      -0.001567      0.380431     -1.826778
  H       2.080742      1.304144     -0.065258
  H       2.205530     -0.193349     -0.934468
  H       3.547729     -0.442619      0.855379
  O       2.376571      2.682298     -0.170214
  O       2.826512      4.191329     -0.554927
  H       2.127451      2.862277      0.758275
  H       2.875639      4.180773     -1.525465
20
Coordinates from ORCA-job BnOH_H2O2_ts_opt_IRC_B E -32.167912858680
  C      -0.145392     -0.225331      1.493831
  C      -1.520038     -0.298277      1.645051
  C      -2.349879     -0.121768      0.550011
  C      -1.802554      0.115045     -0.700579
  C      -0.431874      0.185746     -0.854443
  C       0.406278      0.018934      0.243201
  C       1.883168      0.184750      0.039754
  O       2.623557     -0.335396      1.109948
  H       0.504485     -0.362618      2.346671
  H      -1.947053     -0.487604      2.619272
  H      -3.421401     -0.165831      0.669099
  H      -2.446090      0.247883     -1.557164
  H      -0.001927      0.380237     -1.826293
  H       2.074545      1.275704     -0.061448
  H       2.203600     -0.203258     -0.934519
  H       3.547771     -0.441624      0.854724
  O       2.390486      2.741398     -0.174965
  O       2.816300      4.160337     -0.547856
  H       2.130510      2.866080      0.751361
  H       2.873864      4.175044     -1.519574
20
Coordinates from ORCA-job BnOH_H2O2_ts_opt_IRC_B E -32.172877396450
  C      -0.144667     -0.226136      1.493500
  C      -1.520540     -0.298171      1.643440
  C      -2.349906     -0.122112      0.550928
  C      -1.803334      0.115300     -0.700835
  C      -0.433043      0.185473     -0.853660
  C       0.406604      0.018518      0.240217
  C       1.883529      0.186151      0.035712
  O       2.624763     -0.341179      1.113520
  H       0.504778     -0.362249      2.344337
  H      -1.946189     -0.487457      2.618745
  H      -3.421983     -0.166394      0.669385
  H      -2.446658      0.247912     -1.557149
  H      -0.002336      0.379980     -1.825903
  H       2.070979      1.255509     -0.058340
  H       2.200143     -0.215391     -0.932238
  H       3.548322     -0.440156      0.853847
  O       2.405715      2.798025     -0.189763
  O       2.808827      4.140376     -0.537973
  H       2.132338      2.875761      0.752388
  H       2.871012      4.165693     -1.514075
20
Coordinates from ORCA-job BnOH_H2O2_ts_opt_IRC_B E -32.175553632180
  C      -0.144753     -0.227302      1.490305
  C      -1.519748     -0.298151      1.642141
  C      -2.351284     -0.122499      0.550912
  C      -1.805362      0.115782     -0.700851
  C      -0.434971      0.185076     -0.854190
  C       0.404844      0.014780      0.238285
  C       1.882597      0.171379      0.035623
  O       2.625264     -0.352741      1.116198
  H       0.506251     -0.361981      2.340682
  H      -1.944464     -0.487157      2.617731
  H      -3.422988     -0.167590      0.670118
  H      -2.448190      0.248099     -1.557301
  H      -0.003567      0.379387     -1.825524
  H       2.070367      1.237793     -0.055743
  H       2.194178     -0.241885     -0.929756
  H       3.549301     -0.437200      0.852942
  O       2.411089      2.837841     -0.190019
  O       2.814195      4.168198     -0.533568
  H       2.140032      2.898849      0.742756
  H       2.865564      4.148775     -1.504658
20
Coordinates from ORCA-job BnOH_H2O2_ts_opt_IRC_B E -32.177529189660
  C      -0.146326     -0.229805      1.489141
  C      -1.520833     -0.298123      1.641228
  C      -2.352960     -0.123044      0.550868
  C      -1.807841      0.116620     -0.701533
  C      -0.437262      0.183712     -0.855460
  C       0.402643      0.007232      0.236455
  C       1.882692      0.154422      0.035308
  O       2.624333     -0.370209      1.116197
  H       0.508319     -0.362374      2.336202
  H      -1.942555     -0.486775      2.617301
  H      -3.424439     -0.169352      0.671341
  H      -2.450909      0.248780     -1.557572
  H      -0.005456      0.378639     -1.826692
  H       2.075121      1.225155     -0.056875
  H       2.186594     -0.277330     -0.924758
  H       3.550612     -0.433694      0.853904
  O       2.415688      2.866369     -0.189325
  O       2.820346      4.202203     -0.532099
  H       2.146656      2.933748      0.745138
  H       2.863930      4.143276     -1.502685
20
Coordinates from ORCA-job BnOH_H2O2_ts_opt_IRC_B E -32.179012265280
  C      -0.147386     -0.233321      1.487729
  C      -1.522071     -0.298581      1.640255
  C      -2.354918     -0.123762      0.551632
  C      -1.809621      0.116880     -0.702677
  C      -0.438701      0.180727     -0.855901
  C       0.401675      0.002310      0.233156
  C       1.881867      0.142566      0.033593
  O       2.622305     -0.388675      1.114241
  H       0.509662     -0.363979      2.333049
  H      -1.942633     -0.486347      2.618723
  H      -3.426226     -0.171053      0.672326
  H      -2.453950      0.250205     -1.557420
  H      -0.007982      0.377355     -1.827820
  H       2.083446      1.208375     -0.062152
  H       2.179123     -0.310478     -0.918984
  H       3.551773     -0.430540      0.857598
  O       2.421102      2.898392     -0.179641
  O       2.820816      4.216371     -0.537060
  H       2.152812      2.970104      0.750772
  H       2.867262      4.152902     -1.505337
20
Coordinates from ORCA-job BnOH_H2O2_ts_opt_IRC_B E -32.179294172680
  C      -0.147625     -0.233728      1.487261
  C      -1.522143     -0.298869      1.640639
  C      -2.355080     -0.123822      0.551222
  C      -1.810156      0.116668     -0.702194
  C      -0.439299      0.180439     -0.856487
  C       0.401154      0.001413      0.233740
  C       1.882150      0.139181      0.033398
  O       2.621783     -0.391617      1.114018
  H       0.509706     -0.364422      2.332549
  H      -1.942538     -0.486182      2.618485
  H      -3.426471     -0.171254      0.672459
  H      -2.454360      0.250480     -1.557309
  H      -0.008412      0.377015     -1.828063
  H       2.085526      1.206839     -0.063555
  H       2.177948     -0.315527     -0.918678
  H       3.551734     -0.430032      0.858510
  O       2.421162      2.899350     -0.178386
  O       2.821862      4.222262     -0.537891
  H       2.153526      2.976657      0.753001
  H       2.867889      4.154601     -1.506636
20
Coordinates from ORCA-job BnOH_H2O2_ts_opt_IRC_B E -32.179948316660
  C      -0.148315     -0.235044      1.486172
  C      -1.522510     -0.299595      1.641279
  C      -2.355908     -0.124147      0.550572
  C      -1.811428      0.116212     -0.701372
  C      -0.440674      0.179434     -0.857623
  C       0.400282     -0.001074      0.234238
  C       1.882543      0.131228      0.032341
  O       2.620222     -0.400667      1.113408
  H       0.509880     -0.365872      2.331265
  H      -1.942529     -0.485810      2.618311
  H      -3.427183     -0.171854      0.672881
  H      -2.455706      0.251298     -1.556939
  H      -0.009791      0.375921     -1.828708
  H       2.091549      1.200189     -0.067751
  H       2.174394     -0.330728     -0.917673
  H       3.551703     -0.428569      0.861477
  O       2.422562      2.908548     -0.173871
  O       2.823292      4.233905     -0.540495
  H       2.156104      2.995922      0.758063
  H       2.869870      4.160153     -1.509493
20
Coordinates from ORCA-job BnOH_H2O2_ts_opt_IRC_B E -32.180592617440
  C      -0.148954     -0.236608      1.485407
  C      -1.522923     -0.300136      1.641077
  C      -2.357004     -0.124705      0.550844
  C      -1.812163      0.116009     -0.701415
  C      -0.441703      0.178108     -0.857774
  C       0.400051     -0.003211      0.233082
  C       1.882507      0.124376      0.030532
  O       2.618345     -0.410408      1.112320
  H       0.509910     -0.367724      2.330144
  H      -1.942927     -0.485626      2.618836
  H      -3.428045     -0.172464      0.673376
  H      -2.457226      0.252139     -1.556351
  H      -0.011441      0.374543     -1.829255
  H       2.098099      1.190935     -0.072513
  H       2.170487     -0.346660     -0.916398
  H       3.551577     -0.427120      0.865400
  O       2.424965      2.923188     -0.168380
  O       2.823575      4.242022     -0.543423
  H       2.159170      3.016435      0.762372
  H       2.872053      4.166358     -1.511795
20
Coordinates from ORCA-job BnOH_H2O2_ts_opt_IRC_B E -32.181178233080
  C      -0.149374     -0.238125      1.484729
  C      -1.523565     -0.300771      1.641171
  C      -2.357616     -0.125154      0.551076
  C      -1.813570      0.115701     -0.700951
  C      -0.442680      0.176912     -0.858231
  C       0.399141     -0.005344      0.232639
  C       1.882987      0.115896      0.029049
  O       2.616288     -0.420087      1.111187
  H       0.509724     -0.369790      2.328951
  H      -1.943034     -0.485426      2.618799
  H      -3.428970     -0.173014      0.673874
  H      -2.458609      0.252953     -1.555727
  H      -0.013016      0.373056     -1.830054
  H       2.105200      1.183162     -0.077803
  H       2.166683     -0.362389     -0.915943
  H       3.551139     -0.425693      0.869851
  O       2.426555      2.934087     -0.163020
  O       2.824939      4.253995     -0.546399
  H       2.162001      3.037376      0.767565
  H       2.874133      4.172107     -1.514678
20
Coordinates from ORCA-job BnOH_H2O2_ts_opt_IRC_B E -32.181705816090
  C      -0.149883     -0.239612      1.484066
  C      -1.523927     -0.301262      1.640858
  C      -2.358702     -0.125579      0.551566
  C      -1.814197      0.115603     -0.701029
  C      -0.443716      0.175671     -0.858208
  C       0.399104     -0.007236      0.231250
  C       1.883036      0.109235      0.026651
  O       2.614128     -0.429646      1.110124
  H       0.509591     -0.372096      2.328089
  H      -1.943378     -0.485461      2.619355
  H      -3.429760     -0.173496      0.674464
  H      -2.460067      0.253700     -1.555026
  H      -0.014702      0.371399     -1.830670
  H       2.111965      1.173597     -0.083151
  H       2.162882     -0.377379     -0.915298
  H       3.550651     -0.424406      0.874838
  O       2.428933      2.948657     -0.157414
  O       2.825284      4.262207     -0.549385
  H       2.164930      3.057732      0.771915
  H       2.876182      4.177825     -1.516909
20
Coordinates from ORCA-job BnOH_H2O2_ts_opt_IRC_B E -32.182166945560
  C      -0.150173     -0.241055      1.483595
  C      -1.524293     -0.301845      1.641112
  C      -2.359236     -0.125848      0.551922
  C      -1.815690      0.115400     -0.700489
  C      -0.444658      0.174592     -0.858971
  C       0.398348     -0.009171      0.231005
  C       1.883590      0.100652      0.025301
  O       2.611846     -0.438581      1.108854
  H       0.509203     -0.374434      2.326885
  H      -1.943244     -0.485447      2.619076
  H      -3.430584     -0.173871      0.675042
  H      -2.461335      0.254400     -1.554391
  H      -0.016262      0.369718     -1.831491
  H       2.118889      1.166305     -0.088752
  H       2.159435     -0.391820     -0.915593
  H       3.549785     -0.423196      0.880080
  O       2.430533      2.958904     -0.152304
  O       2.826686      4.274067     -0.552110
  H       2.167462      3.077875      0.777196
  H       2.878052      4.182807     -1.519881
20
Coordinates from ORCA-job BnOH_H2O2_ts_opt_IRC_B E -32.182568624400
  C      -0.150517     -0.242427      1.482952
  C      -1.524638     -0.302178      1.640450
  C      -2.360367     -0.126096      0.552601
  C      -1.816043      0.115471     -0.700873
  C      -0.445522      0.173359     -0.858741
  C       0.398772     -0.010857      0.228924
  C       1.883357      0.095163      0.022211
  O       2.609653     -0.447330      1.108149
  H       0.509187     -0.376979      2.326264
  H      -1.943518     -0.485753      2.619926
  H      -3.431128     -0.174142      0.675752
  H      -2.462658      0.255004     -1.553587
  H      -0.017929      0.367913     -1.831997
  H       2.124812      1.156489     -0.093946
  H       2.155975     -0.405049     -0.915017
  H       3.549086     -0.422188      0.885498
  O       2.433053      2.973511     -0.146765
  O       2.826797      4.280913     -0.555043
  H       2.170131      3.096869      0.781090
  H       2.879852      4.187756     -1.521764
20
Coordinates from ORCA-job BnOH_H2O2_ts_opt_IRC_B E -32.182653510930
  C      -0.150439     -0.242662      1.482621
  C      -1.524647     -0.302323      1.640732
  C      -2.360256     -0.126058      0.552415
  C      -1.816480      0.115379     -0.700434
  C      -0.445699      0.173177     -0.859046
  C       0.398352     -0.011292      0.229327
  C       1.883628      0.093228      0.022220
  O       2.609158     -0.448817      1.107795
  H       0.509082     -0.377467      2.325970
  H      -1.943371     -0.485749      2.619680
  H      -3.431353     -0.174169      0.675887
  H      -2.462914      0.255137     -1.553548
  H      -0.018198      0.367576     -1.832232
  H       2.126081      1.155448     -0.095049
  H       2.155427     -0.407640     -0.915259
  H       3.548803     -0.422007      0.886580
  O       2.433274      2.974929     -0.145741
  O       2.827187      4.283565     -0.555601
  H       2.170560      3.100658      0.782146
  H       2.880161      4.188538     -1.522379
20
Coordinates from ORCA-job BnOH_H2O2_ts_opt_IRC_B E -32.182848410190
  C      -0.150384     -0.243353      1.481978
  C      -1.524785     -0.302624      1.641048
  C      -2.360382     -0.126025      0.552277
  C      -1.817297      0.115255     -0.699804
  C      -0.446148      0.172632     -0.859545
  C       0.397877     -0.012380      0.229488
  C       1.883934      0.089213      0.021390
  O       2.607912     -0.453072      1.107311
  H       0.508957     -0.378839      2.325375
  H      -1.943149     -0.485830      2.619456
  H      -3.431735     -0.174229      0.676268
  H      -2.463597      0.255471     -1.553314
  H      -0.018973      0.366625     -1.832735
  H       2.129237      1.151610     -0.097907
  H       2.153859     -0.414505     -0.915573
  H       3.548195     -0.421548      0.889492
  O       2.434260      2.980609     -0.142922
  O       2.827752      4.288931     -0.557098
  H       2.171807      3.110737      0.784609
  H       2.881013      4.190773     -1.523709
20
Coordinates from ORCA-job BnOH_H2O2_ts_opt_IRC_B E -32.183047094630
  C      -0.150400     -0.244172      1.481414
  C      -1.524938     -0.302867      1.640951
  C      -2.360812     -0.126025      0.552402
  C      -1.817775      0.115247     -0.699674
  C      -0.446623      0.171967     -0.859764
  C       0.397881     -0.013465      0.228767
  C       1.883935      0.085595      0.019923
  O       2.606578     -0.457687      1.106935
  H       0.508959     -0.380412      2.324885
  H      -1.943080     -0.486027      2.619682
  H      -3.432039     -0.174252      0.676731
  H      -2.464329      0.255806     -1.552913
  H      -0.019894      0.365525     -1.833122
  H       2.132399      1.146642     -0.100904
  H       2.152098     -0.421729     -0.915517
  H       3.547588     -0.421143      0.892712
  O       2.435594      2.987886     -0.139780
  O       2.828083      4.293704     -0.558746
  H       2.173201      3.121644      0.787074
  H       2.881930      4.193213     -1.524971
20
Coordinates from ORCA-job BnOH_H2O2_ts_opt_IRC_B E -32.183235769940
  C      -0.150517     -0.245087      1.481040
  C      -1.524910     -0.303144      1.640958
  C      -2.361082     -0.126030      0.552728
  C      -1.818344      0.115232     -0.699515
  C      -0.447175      0.171289     -0.860069
  C       0.397578     -0.014603      0.228299
  C       1.884147      0.081314      0.018995
  O       2.605195     -0.462080      1.106366
  H       0.508856     -0.382008      2.324149
  H      -1.942856     -0.486190      2.619622
  H      -3.432401     -0.174215      0.677184
  H      -2.465061      0.256154     -1.552571
  H      -0.020760      0.364426     -1.833695
  H       2.135597      1.142287     -0.103984
  H       2.150460     -0.428990     -0.915727
  H       3.546810     -0.420820      0.895985
  O       2.436784      2.994253     -0.136593
  O       2.828673      4.299414     -0.560431
  H       2.174546      3.132751      0.789778
  H       2.882814      4.195498     -1.526434
20
Coordinates from ORCA-job BnOH_H2O2_ts_opt_IRC_B E -32.183414188920
  C      -0.150538     -0.246012      1.480454
  C      -1.525033     -0.303411      1.640841
  C      -2.361481     -0.125988      0.552900
  C      -1.818833      0.115232     -0.699380
  C      -0.447674      0.170590     -0.860314
  C       0.397534     -0.015776      0.227533
  C       1.884143      0.077689      0.017541
  O       2.603837     -0.466505      1.106141
  H       0.508923     -0.383699      2.323583
  H      -1.942700     -0.486420      2.619816
  H      -3.432658     -0.174122      0.677687
  H      -2.465801      0.256496     -1.552180
  H      -0.021664      0.363275     -1.834181
  H       2.138532      1.137406     -0.106980
  H       2.148824     -0.436070     -0.915714
  H       3.546091     -0.420596      0.899252
  O       2.438201      3.001527     -0.133323
  O       2.829037      4.304257     -0.562151
  H       2.175936      3.143822      0.792295
  H       2.883681      4.197757     -1.527735
20
Coordinates from ORCA-job BnOH_H2O2_ts_opt_IRC_B E -32.183582965790
  C      -0.150615     -0.247025      1.480035
  C      -1.524951     -0.303719      1.640834
  C      -2.361716     -0.125949      0.553240
  C      -1.819378      0.115231     -0.699257
  C      -0.448220      0.169877     -0.860655
  C       0.397228     -0.016999      0.226988
  C       1.884332      0.073427      0.016659
  O       2.602411     -0.470638      1.105638
  H       0.508873     -0.385418      2.322759
  H      -1.942419     -0.486625      2.619768
  H      -3.433016     -0.173960      0.678189
  H      -2.466550      0.256857     -1.551837
  H      -0.022542      0.362116     -1.834799
  H       2.141477      1.133054     -0.110032
  H       2.147318     -0.443155     -0.915885
  H       3.545196     -0.420477      0.902564
  O       2.439501      3.007991     -0.130015
  O       2.829634      4.309942     -0.563910
  H       2.177274      3.155068      0.795030
  H       2.884518      4.199855     -1.529232
20
Coordinates from ORCA-job BnOH_H2O2_ts_opt_IRC_B E -32.183741885580
  C      -0.150626     -0.248047      1.479412
  C      -1.525072     -0.304012      1.640664
  C      -2.362118     -0.125867      0.553439
  C      -1.819858      0.115241     -0.699142
  C      -0.448725      0.169130     -0.860916
  C       0.397206     -0.018256      0.226110
  C       1.884264      0.069912      0.015150
  O       2.601036     -0.474852      1.105616
  H       0.509027     -0.387239      2.322136
  H      -1.942205     -0.486898      2.619980
  H      -3.433204     -0.173730      0.678733
  H      -2.467296      0.257215     -1.551435
  H      -0.023443      0.360913     -1.835343
  H       2.144133      1.128186     -0.112989
  H       2.145828     -0.450046     -0.915822
  H       3.544395     -0.420462      0.905835
  O       2.441032      3.015372     -0.126638
  O       2.830001      4.314721     -0.565707
  H       2.178638      3.166247      0.797555
  H       2.885340      4.201925     -1.530555
20
Coordinates from ORCA-job BnOH_H2O2_ts_opt_IRC_B E -32.183890472680
  C      -0.150679     -0.249156      1.479009
  C      -1.524878     -0.304360      1.640683
  C      -2.362267     -0.125792      0.553826
  C      -1.820391      0.115250     -0.699068
  C      -0.449273      0.168374     -0.861327
  C       0.396820     -0.019553      0.225574
  C       1.884502      0.065545      0.014524
  O       2.599568     -0.478623      1.105076
  H       0.508992     -0.389053      2.321168
  H      -1.941854     -0.487128      2.619878
  H      -3.433602     -0.173429      0.679270
  H      -2.468051      0.257596     -1.551104
  H      -0.024320      0.359715     -1.836014
  H       2.146818      1.124064     -0.115993
  H       2.144518     -0.456886     -0.915980
  H       3.543362     -0.420572      0.909130
  O       2.442389      3.021612     -0.123255
  O       2.830664      4.320533     -0.567523
  H       2.179915      3.177526      0.800328
  H       2.886121      4.203790     -1.532117
20
Coordinates from ORCA-job BnOH_H2O2_ts_opt_IRC_B E -32.184027072110
  C      -0.150685     -0.250233      1.478324
  C      -1.525100     -0.304658      1.640384
  C      -2.362748     -0.125675      0.554030
  C      -1.820821      0.115266     -0.698979
  C      -0.449753      0.167581     -0.861524
  C       0.396943     -0.020854      0.224479
  C       1.884253      0.062552      0.012717
  O       2.598248     -0.482636      1.105461
  H       0.509301     -0.390960      2.320603
  H      -1.941632     -0.487451      2.620189
  H      -3.433630     -0.173058      0.679839
  H      -2.468782      0.257966     -1.550686
  H      -0.025188      0.358491     -1.836583
  H       2.149063      1.119170     -0.118791
  H       2.143205     -0.463354     -0.915782
  H       3.542574     -0.420770      0.912267
  O       2.444060      3.029217     -0.119865
  O       2.830944      4.324775     -0.569348
  H       2.181224      3.188443      0.802699
  H       2.886878      4.205641     -1.533350
20
Coordinates from ORCA-job BnOH_H2O2_ts_opt_IRC_B E -32.184147231010
  C      -0.150732     -0.251385      1.478098
  C      -1.524643     -0.305037      1.640514
  C      -2.362681     -0.125586      0.554512
  C      -1.821306      0.115288     -0.699032
  C      -0.450296      0.166842     -0.862038
  C       0.396327     -0.022141      0.224114
  C       1.884708      0.057947      0.012845
  O       2.596799     -0.485612      1.104582
  H       0.509162     -0.392695      2.319427
  H      -1.941215     -0.487666      2.619930
  H      -3.434192     -0.172643      0.680363
  H      -2.469482      0.258351     -1.550400
  H      -0.026005      0.357345     -1.837271
  H       2.151411      1.115871     -0.121552
  H       2.142211     -0.469522     -0.916023
  H       3.541391     -0.421097      0.915323
  O       2.445278      3.034329     -0.116666
  O       2.831749      4.330758     -0.571090
  H       2.182316      3.199000      0.805419
  H       2.887553      4.207103     -1.534971
20
Coordinates from ORCA-job BnOH_H2O2_ts_opt_IRC_B E -32.184194274260
  C      -0.150755     -0.251802      1.477807
  C      -1.524848     -0.305131      1.640277
  C      -2.362960     -0.125538      0.554604
  C      -1.821421      0.115298     -0.699006
  C      -0.450451      0.166531     -0.862010
  C       0.396522     -0.022629      0.223526
  C       1.884454      0.057284      0.011849
  O       2.596377     -0.487076      1.105050
  H       0.509382     -0.393418      2.319318
  H      -1.941157     -0.487809      2.620141
  H      -3.434057     -0.172458      0.680572
  H      -2.469740      0.258489     -1.550235
  H      -0.026294      0.356900     -1.837487
  H       2.152035      1.113956     -0.122470
  H       2.141782     -0.471680     -0.915855
  H       3.541176     -0.421229      0.916375
  O       2.445964      3.037369     -0.115448
  O       2.831760      4.331860     -0.571752
  H       2.182777      3.202825      0.806161
  H       2.887809      4.207711     -1.535330
20
Coordinates from ORCA-job BnOH_H2O2_ts_opt_IRC_B E -32.184252257400
  C      -0.150581     -0.252319      1.477178
  C      -1.524884     -0.305356      1.640487
  C      -2.363047     -0.125389      0.554298
  C      -1.821813      0.115236     -0.698626
  C      -0.450633      0.166200     -0.862448
  C       0.396438     -0.023373      0.223552
  C       1.884451      0.055724      0.011262
  O       2.595699     -0.488686      1.105124
  H       0.509509     -0.394339      2.318978
  H      -1.940977     -0.487944      2.620121
  H      -3.434165     -0.172213      0.680863
  H      -2.470104      0.258689     -1.550111
  H      -0.026717      0.356305     -1.837719
  H       2.152972      1.111924     -0.123727
  H       2.141304     -0.474557     -0.915801
  H       3.540742     -0.421432      0.917790
  O       2.446730      3.040629     -0.113854
  O       2.831962      4.333999     -0.572622
  H       2.183335      3.207927      0.807304
  H       2.888135      4.208425     -1.535965
20
Coordinates from ORCA-job BnOH_H2O2_ts_opt_IRC_B E -32.184315289130
  C      -0.150568     -0.253010      1.476866
  C      -1.524824     -0.305571      1.640430
  C      -2.363132     -0.125303      0.554443
  C      -1.822076      0.115237     -0.698585
  C      -0.450903      0.165757     -0.862675
  C       0.396293     -0.024140      0.223146
  C       1.884479      0.053639      0.010835
  O       2.594940     -0.490423      1.105056
  H       0.509593     -0.395394      2.318474
  H      -1.940784     -0.488108      2.620139
  H      -3.434309     -0.171909      0.681181
  H      -2.470492      0.258916     -1.549913
  H      -0.027176      0.355634     -1.838069
  H       2.154076      1.109794     -0.125189
  H       2.140777     -0.477857     -0.915765
  H       3.540164     -0.421695      0.919436
  O       2.447536      3.043952     -0.112003
  O       2.832312      4.336882     -0.573647
  H       2.183945      3.213867      0.808718
  H       2.888504      4.209186     -1.536790
