!xtb
!alpb(water)
!optts
!slowconv
!tightscf
!freq
!irc
%maxcore 2200
%pal
    nprocs 12
end

%geom
    maxiter 1000
    cartfallback true
    calc_hess true
    recalc_hess 25
end

%irc
    maxiter 100
end

%output
    jsonpropfile true
    jsongbwfile true
end

* xyz 0 1
C            -0.1406132296106300            -0.2032387250596200             1.4986155701861701
C            -1.5119421371186199            -0.2811458670052200             1.6420000949993401
C            -2.3387672997633202            -0.1051409346570700             0.5430157813111800
C            -1.7891140324979100             0.1452821230530100            -0.7067603229813600
C            -0.4198118637259400             0.2193954656026500            -0.8605567249466800
C             0.4205501801550400             0.0393430092004300             0.2423633331887700
C             1.8706932921892701             0.1192581425689400             0.0687096035143800
O             2.6235478542059099            -0.2927504771630400             1.1068508195063300
H             0.5118960526377000            -0.3410824572864100             2.3462033457517202
H            -1.9395751915630299            -0.4756705594642800             2.6133553451023501
H            -3.4101418585111198            -0.1601507699758400             0.6587808010424000
H            -2.4340267198721199             0.2845184271687000            -1.5605842553834599
H             0.0100364966403800             0.4232096008270600            -1.8291794840178199
H             2.0682202866646202             1.4539284553137599            -0.0308067956072600
H             2.2279583470766502            -0.1368313863116400            -0.9282491942455100
H             3.5563218549357400            -0.4131355617795000             0.8678013448612300
O             2.3012856888985000             2.5015364430051901            -0.1190504575441800
O             2.7580293213898002             4.2730685093689003            -0.5915714328911800
H             2.1450675508333301             2.8756401419680500             0.7572254384682600
H             2.8389771813000699             4.1345933457974997            -1.5370669324683000
*
