20
Coordinates from ORCA-job BnOH_H2O2_ts_opt_IRC_F E -32.262292217960
  C          -0.15218058940443     -0.29607800968719      1.50456219790784
  C          -1.53174013139191     -0.30900685771960      1.64853844333564
  C          -2.34855163287439     -0.10115276279335      0.54900058806718
  C          -1.78734717845801      0.10502404871946     -0.70095738576344
  C          -0.41230954155350      0.11451360158217     -0.85023925130303
  C           0.41955015554032     -0.05747001249226      0.25299484494835
  C           1.90429276160557      0.15671633896714      0.06537659986312
  O           2.61521378137790     -0.42664996491320      1.06540145782488
  H           0.47888711191304     -0.45619030294634      2.36654206072265
  H          -1.97510604953389     -0.45659481371927      2.62364613882331
  H          -3.42192132193997     -0.10141022048742      0.66261138502473
  H          -2.42245397327256      0.27939560396903     -1.55614457278364
  H           0.02754070025039      0.28678894756083     -1.82125629088794
  H           1.54183310811595      2.14689350311624      0.54299551037820
  H           2.23555935507514     -0.09421870709333     -0.94687404866046
  H           3.56131297490873     -0.46901210989295      0.86272700201884
  O           2.22521170740874      1.72672271148073      0.00512862750940
  O           2.78735279746900      4.41554278808915     -0.43622183267481
  H           2.62852482681973      3.48031501165385     -0.23527590083730
  H           2.93516012327230      4.46767370719952     -1.38644808449873
