20
Coordinates from ORCA-job BnOH_H2O2_ts_opt E -32.138405828800
  C      -0.140613     -0.203239      1.498616
  C      -1.511942     -0.281146      1.642000
  C      -2.338767     -0.105141      0.543016
  C      -1.789114      0.145282     -0.706760
  C      -0.419812      0.219395     -0.860557
  C       0.420550      0.039343      0.242363
  C       1.870693      0.119258      0.068710
  O       2.623548     -0.292750      1.106851
  H       0.511896     -0.341082      2.346203
  H      -1.939575     -0.475671      2.613355
  H      -3.410142     -0.160151      0.658781
  H      -2.434027      0.284518     -1.560584
  H       0.010036      0.423210     -1.829179
  H       2.068220      1.453928     -0.030807
  H       2.227958     -0.136831     -0.928249
  H       3.556322     -0.413136      0.867801
  O       2.301286      2.501536     -0.119050
  O       2.758029      4.273069     -0.591571
  H       2.145068      2.875640      0.757225
  H       2.838977      4.134593     -1.537067
20
Coordinates from ORCA-job BnOH_H2O2_ts_opt E -32.137793955160
  C      -0.153609     -0.239350      1.507741
  C      -1.524816     -0.316062      1.643547
  C      -2.346426     -0.120159      0.543036
  C      -1.791983      0.151114     -0.701031
  C      -0.422785      0.224887     -0.849227
  C       0.414099      0.021912      0.255241
  C       1.855584      0.085516      0.088015
  O       2.611307     -0.312957      1.114101
  H       0.495758     -0.392723      2.355053
  H      -1.958107     -0.525416      2.609195
  H      -3.418188     -0.175756      0.653583
  H      -2.434380      0.306974     -1.553731
  H       0.012219      0.445717     -1.811599
  H       2.046911      1.491348      0.015330
  H       2.229268     -0.095633     -0.917849
  H       3.547873     -0.425375      0.880947
  O       2.312494      2.506538     -0.120257
  O       2.825705      4.325574     -0.658294
  H       2.183777      2.943842      0.728719
  H       2.863890      4.160635     -1.601424
20
Coordinates from ORCA-job BnOH_H2O2_ts_opt E -32.137537228560
  C      -0.145115     -0.167430      1.499500
  C      -1.514532     -0.226894      1.654062
  C      -2.346557     -0.106872      0.549791
  C      -1.804158      0.072210     -0.716282
  C      -0.436643      0.131902     -0.883383
  C       0.411443      0.003071      0.224834
  C       1.846868      0.047530      0.041851
  O       2.616511     -0.331921      1.058861
  H       0.512409     -0.262276      2.349089
  H      -1.939148     -0.363408      2.636369
  H      -3.417282     -0.149791      0.674699
  H      -2.455008      0.167125     -1.571405
  H      -0.011338      0.279901     -1.863760
  H       2.031621      1.485869     -0.036314
  H       2.216003     -0.116824     -0.967739
  H       3.551601     -0.444564      0.817942
  O       2.322421      2.492916     -0.095399
  O       2.858298      4.377520     -0.506386
  H       2.196261      2.884210      0.775121
  H       2.854940      4.288352     -1.460354
20
Coordinates from ORCA-job BnOH_H2O2_ts_opt E -32.137509806930
  C      -0.149891     -0.203508      1.507581
  C      -1.519955     -0.260598      1.655302
  C      -2.347358     -0.110438      0.550948
  C      -1.799761      0.095304     -0.709159
  C      -0.431739      0.151251     -0.870308
  C       0.412294     -0.006309      0.238463
  C       1.845460      0.034989      0.059558
  O       2.617415     -0.337163      1.072467
  H       0.504168     -0.320652      2.357034
  H      -1.949126     -0.418683      2.632304
  H      -3.418714     -0.150255      0.671125
  H      -2.447256      0.214326     -1.563761
  H      -0.001901      0.321261     -1.845049
  H       2.021421      1.497812     -0.009458
  H       2.217882     -0.103026     -0.952506
  H       3.553972     -0.443367      0.832779
  O       2.304610      2.496218     -0.114632
  O       2.862870      4.397324     -0.557092
  H       2.157484      2.930717      0.731236
  H       2.916716      4.275425     -1.505736
20
Coordinates from ORCA-job BnOH_H2O2_ts_opt E -32.137507824900
  C      -0.157226     -0.222420      1.511228
  C      -1.527068     -0.285742      1.656415
  C      -2.353653     -0.125537      0.552617
  C      -1.805430      0.097089     -0.704564
  C      -0.437647      0.159535     -0.863625
  C       0.406078     -0.008604      0.244591
  C       1.837328      0.034850      0.067108
  O       2.611226     -0.329942      1.079015
  H       0.496366     -0.347070      2.359966
  H      -1.956992     -0.456967      2.630827
  H      -3.424986     -0.170698      0.670966
  H      -2.452517      0.223878     -1.558316
  H      -0.007084      0.342444     -1.835677
  H       2.007068      1.516436      0.003408
  H       2.213764     -0.088143     -0.945278
  H       3.549228     -0.429149      0.840917
  O       2.310920      2.503304     -0.122591
  O       2.910967      4.408320     -0.584105
  H       2.167150      2.964123      0.709611
  H       2.961102      4.274920     -1.531419
20
Coordinates from ORCA-job BnOH_H2O2_ts_opt E -32.137538515140
  C      -0.158011     -0.231117      1.512704
  C      -1.527991     -0.290819      1.657403
  C      -2.353939     -0.124714      0.553877
  C      -1.804913      0.099918     -0.702706
  C      -0.437016      0.158266     -0.861526
  C       0.406294     -0.015355      0.246534
  C       1.837085      0.026401      0.069426
  O       2.612194     -0.333610      1.081331
  H       0.495197     -0.359155      2.361240
  H      -1.958691     -0.463542      2.631196
  H      -3.425433     -0.166588      0.671997
  H      -2.451576      0.231699     -1.556017
  H      -0.005637      0.343073     -1.832852
  H       2.002157      1.518717      0.008567
  H       2.213648     -0.091482     -0.943480
  H       3.550711     -0.429184      0.843488
  O       2.307041      2.505980     -0.131223
  O       2.916044      4.419524     -0.587166
  H       2.150741      2.979395      0.691577
  H       2.980685      4.283220     -1.533273
20
Coordinates from ORCA-job BnOH_H2O2_ts_opt E -32.137549102940
  C      -0.160141     -0.244278      1.514691
  C      -1.530427     -0.302411      1.656876
  C      -2.354464     -0.124738      0.553686
  C      -1.803202      0.109763     -0.700190
  C      -0.435019      0.166300     -0.856650
  C       0.406497     -0.018640      0.251149
  C       1.837340      0.022165      0.076333
  O       2.611488     -0.333339      1.090234
  H       0.491594     -0.380946      2.362999
  H      -1.962866     -0.482983      2.628464
  H      -3.426213     -0.165217      0.669962
  H      -2.448422      0.250704     -1.553126
  H      -0.001755      0.358977     -1.825605
  H       2.002980      1.519822      0.012920
  H       2.215496     -0.097822     -0.935821
  H       3.550631     -0.427846      0.854201
  O       2.307982      2.506614     -0.142166
  O       2.920767      4.424338     -0.601235
  H       2.146624      2.993281      0.671938
  H       2.979701      4.286883     -1.547563
20
Coordinates from ORCA-job BnOH_H2O2_ts_opt E -32.137549913340
  C      -0.159381     -0.243760      1.514520
  C      -1.529796     -0.299796      1.656420
  C      -2.353317     -0.121257      0.552993
  C      -1.801406      0.111692     -0.700876
  C      -0.433083      0.165898     -0.857060
  C       0.407859     -0.019593      0.251032
  C       1.838931      0.020176      0.076802
  O       2.612175     -0.336650      1.091103
  H       0.491924     -0.381234      2.363024
  H      -1.962729     -0.479310      2.627987
  H      -3.425158     -0.159870      0.669074
  H      -2.446204      0.253314     -1.554021
  H       0.000689      0.357496     -1.826006
  H       2.006227      1.516437      0.014187
  H       2.217099     -0.100765     -0.935237
  H       3.551270     -0.432221      0.855360
  O       2.307967      2.504572     -0.142579
  O       2.914747      4.424006     -0.599971
  H       2.147491      2.991111      0.671790
  H       2.963285      4.290378     -1.547445
20
Coordinates from ORCA-job BnOH_H2O2_ts_opt E -32.137550424170
  C      -0.159491     -0.244217      1.514622
  C      -1.530077     -0.298920      1.655401
  C      -2.352526     -0.118513      0.551487
  C      -1.799381      0.115067     -0.701719
  C      -0.430878      0.168052     -0.856760
  C       0.408964     -0.019461      0.251801
  C       1.840210      0.018699      0.078669
  O       2.612096     -0.339241      1.093659
  H       0.490990     -0.383152      2.363521
  H      -1.963957     -0.478883      2.626461
  H      -3.424497     -0.156137      0.666686
  H      -2.443360      0.258133     -1.555243
  H       0.003886      0.360146     -1.825157
  H       2.011184      1.513424      0.015958
  H       2.219080     -0.103806     -0.932926
  H       3.551167     -0.436914      0.858611
  O       2.310362      2.501635     -0.142494
  O       2.912301      4.422187     -0.602885
  H       2.158323      2.988123      0.673547
  H       2.934194      4.294405     -1.552141
20
Coordinates from ORCA-job BnOH_H2O2_ts_opt E -32.137550768120
  C      -0.159792     -0.244266      1.514646
  C      -1.530505     -0.297477      1.654588
  C      -2.352097     -0.116363      0.550126
  C      -1.797957      0.116314     -0.702820
  C      -0.429317      0.167725     -0.857062
  C       0.409682     -0.020402      0.252080
  C       1.840916      0.016627      0.079826
  O       2.612131     -0.343052      1.094576
  H       0.490013     -0.383729      2.363973
  H      -1.965194     -0.476762      2.625408
  H      -3.424179     -0.152718      0.664699
  H      -2.441274      0.259934     -1.556749
  H       0.006249      0.359145     -1.825232
  H       2.012039      1.512823      0.020869
  H       2.220333     -0.103106     -0.931863
  H       3.551198     -0.441505      0.859729
  O       2.311871      2.500216     -0.140953
  O       2.913617      4.421412     -0.605956
  H       2.172323      2.986577      0.677414
  H       2.908534      4.299233     -1.556201
20
Coordinates from ORCA-job BnOH_H2O2_ts_opt E -32.137551021860
  C      -0.159303     -0.244007      1.514560
  C      -1.530129     -0.295515      1.654150
  C      -2.351207     -0.113681      0.549438
  C      -1.796447      0.118055     -0.703405
  C      -0.427707      0.167899     -0.857259
  C       0.410766     -0.020960      0.252142
  C       1.842134      0.014690      0.080204
  O       2.613003     -0.344816      1.095352
  H       0.490088     -0.383996      2.364121
  H      -1.965302     -0.473999      2.624905
  H      -3.423365     -0.148716      0.663730
  H      -2.439357      0.262231     -1.557551
  H       0.008379      0.358704     -1.825314
  H       2.013893      1.510809      0.020332
  H       2.221548     -0.106140     -0.931350
  H       3.551970     -0.444434      0.860604
  O       2.310807      2.499420     -0.140656
  O       2.906302      4.421546     -0.606388
  H       2.175991      2.982859      0.680255
  H       2.896530      4.300680     -1.556776
