20
Coordinates from ORCA-job BnOH_H2O2_ts_opt E -32.137551021860
  C          -0.15930343630558     -0.24400687847627      1.51455982345874
  C          -1.53012938200148     -0.29551505941652      1.65415019509536
  C          -2.35120722616108     -0.11368103586099      0.54943787576401
  C          -1.79644689134120      0.11805466408348     -0.70340503434545
  C          -0.42770703498477      0.16789873747057     -0.85725912242002
  C           0.41076577538808     -0.02096023831735      0.25214224965673
  C           1.84213439769747      0.01469035513475      0.08020438301298
  O           2.61300282264616     -0.34481647414976      1.09535239192676
  H           0.49008752053351     -0.38399648359051      2.36412112725758
  H          -1.96530247213872     -0.47399872540310      2.62490535394967
  H          -3.42336491757086     -0.14871576117985      0.66373007599339
  H          -2.43935739617242      0.26223110573580     -1.55755057853487
  H           0.00837927353698      0.35870391025196     -1.82531367574988
  H           2.01389295039579      1.51080873995030      0.02033239971819
  H           2.22154826154291     -0.10614046996556     -0.93135034187517
  H           3.55196955988358     -0.44443408348902      0.86060364326872
  O           2.31080720489660      2.49942024784027     -0.14065602226387
  O           2.90630203858749      4.42154582222775     -0.60638768737263
  H           2.17599054692931      2.98285887640048      0.68025495850420
  H           2.89653017890256      4.30067967592513     -1.55677613719808
