20
2 Eopt=-32.1903621041 (Eh) Einter=-3.724681 (kcal/mol)
C  -0.16129283377306879999 1.07834775774524072034 0.61007814443706398500
C  -1.51299513179093980675 1.29651614039841289738 0.40563640272986883906
C  -2.30286485193696810470 0.29565556012948301934 -0.13385584403250758156
C  -1.73823912367006361279 -0.92503460330248354904 -0.46572844329986318179
C  -0.38843422540247896091 -1.14528086023028796703 -0.25732412875164151211
C  0.41022874202774861629 -0.14458070492375904581 0.28340328891990373972
C  1.88704892195277729172 -0.38043184088903608808 0.47030868934596337105
O  2.60579098102595496655 -0.32549149923212655766 -0.75606497094002123038
H  0.45121066830484840571 1.86097786716384394623 1.03459220726346035057
H  -1.94928806111571262250 2.24878374781134837690 0.66746460312773592261
H  -3.35695793853960555708 0.46563143120641764527 -0.29372508399396018985
H  -2.35160835451261984730 -1.70835713104863562428 -0.88488910694000388890
H  0.05522366686645688305 -2.09661669809661344033 -0.51071990480353490760
H  2.06166568832911778486 -1.38671416309346118290 0.85863922440835604988
H  2.30484594558656530339 0.34996830082483088020 1.17416177255642639743
H  2.45273258642465208368 0.53220886483576212989 -1.17605042846581175908
O  2.66932731577804505108 -2.83977126388745526597 -1.97472644088783444438
O  2.07326807543265356770 -3.53252280547277042189 -0.88422934162459521090
H  2.74945129507865004825 -1.91903836283404261032 -1.62898976970818321064
H  2.25146875589999462264 -4.46421419173108269263 -1.10137197368531203345
20
3 Eopt=-32.1898884142 (Eh) Einter=-3.427436 (kcal/mol)
C  -0.06540883109466209822 0.88555993808415867097 0.84039531476652218345
C  -1.44876305150186923676 0.88927770088105750901 0.80700164282200248511
C  -2.12808346388368807567 -0.02242249987958219726 0.01594837242259348337
C  -1.41862224372423062491 -0.94226247415329367207 -0.73752277002390798089
C  -0.03567382709502477101 -0.95107994429848763396 -0.69835069462329601997
C  0.65152652271138522533 -0.03602544751236148174 0.08868140729851442527
C  2.15850666330457441333 -0.05624919011343346847 0.13621794027774453140
O  2.75880366427299605903 -0.43401443476072948391 -1.08912603007999653215
H  0.46278186546865374140 1.59935167694538837857 1.45570298967014588598
H  -1.99798001760025245588 1.60828214339318087411 1.39615855144166167712
H  -3.20721563350509697443 -0.01579169473095110021 -0.01264292296062161092
H  -1.94268856710988391256 -1.65661299969558939438 -1.35456284150902916963
H  0.52343957119185302584 -1.66968723052309120369 -1.27945263012445509254
H  2.49168390318498644831 -0.80409320653501847875 0.86428367446672249574
H  2.53863189840866576574 0.92081134513124340835 0.46042747232648051359
H  2.54713715555129338597 0.22626339513061063946 -1.76322841322922396756
O  4.99314714697309192104 -2.03751783040525413782 -0.52695662545591936965
O  4.69274742424572810506 -2.09651416007167279432 0.86291398813290898229
H  4.25543515965111041055 -1.48987057000615141789 -0.88199634799406090302
H  5.42247189186817735163 -2.63728634763387015383 1.21240485896844174540
20
4 Eopt=-32.1885593482 (Eh) Einter=-2.593435 (kcal/mol)
C  -0.43052514731161445338 0.93913635420121566177 0.72985105101552505413
C  -1.80110074876182157944 0.88939502517964164063 0.54339486183544760678
C  -2.36386508513133097864 -0.12421394310836246511 -0.21424893722120047501
C  -1.55128234969153222522 -1.09048079723012669717 -0.78351798744614453707
C  -0.18223104858952271501 -1.04418971054847586899 -0.59128851921152536519
C  0.38927493691334563719 -0.02955586167398302488 0.16640999730380362509
C  1.88344689174673174392 0.00630312821892671776 0.37693685011206640167
O  2.62657427574507362777 -0.35229443290984263637 -0.77275536670201405709
H  0.00651926666265559285 1.73469995352148309564 1.31485117843025722806
H  -2.43024867983392978132 1.64688548059048311956 0.98633998381664034216
H  -3.43289322000563856818 -0.16037147838136697753 -0.36158165553898563571
H  -1.98466333748054468700 -1.88262542985947844976 -1.37571079279850017052
H  0.46044596669498222274 -1.79344184222908120674 -1.03067726940858128692
H  2.15919054482968686415 -0.73501859422396575994 1.13510800575314463323
H  2.18917570574352593482 0.99477662023936297420 0.74164341587363591390
H  2.47146961085152039317 0.30800727142427702931 -1.46153372680189308497
O  2.41586176908672634056 3.21843469924939817872 1.72027143581455432830
O  1.48467647074561104326 4.28232525142371400761 1.62801432317080396750
H  2.82943918090488510941 3.34760453855513118171 2.59384983375045319320
H  1.72753231655941230649 4.73667288321523383132 0.80008672806342950867
20
1 Eopt=-32.1885228994 (Eh) Einter=-2.570563 (kcal/mol)
C  -0.17685414717591474432 0.98567380992541753226 0.86396107432043256491
C  -1.54471980743334125208 1.07651449529728293619 0.67735706877166745876
C  -2.20202850578558706474 0.14734504196825404243 -0.11193618777176861379
C  -1.48717967904441428217 -0.87875953183407329306 -0.70558183914444616569
C  -0.12105516791264779586 -0.97444644402808666683 -0.51115687149124888755
C  0.54627062159622508108 -0.04002133013987715926 0.26899408541432767716
C  2.03859042685103597492 -0.14170713736857470932 0.46946076145365100984
O  2.72609836163062180248 -0.70645865247004691057 -0.62556522498193511961
H  0.33631213744187155035 1.71637314655608030911 1.47257288486067117184
H  -2.09808389725066790632 1.87859315971294371650 1.14283347872321572325
H  -3.26815571473019428339 0.22405543671079075629 -0.26429653082093795824
H  -1.99341419027943533848 -1.60559951673583012344 -1.32282136196363353520
H  0.44335527586101591835 -1.77339527243159200687 -0.96861971287173753709
H  2.25026412895555916194 -0.80460849197380535092 1.31627056619358295819
H  2.44906847749512923684 0.85071239275978260963 0.70485817300300923627
H  2.50697917464118091857 -0.19129238543377774517 -1.41937559546946001632
O  0.59047417127624945987 0.39803217082362596368 -3.50151159839092240844
O  1.69399803084099187522 1.01219645314835271499 -2.86596970661130301394
H  0.98460369626454591341 -0.09335362600317709258 -4.24698582854058681590
H  1.55096423647571746152 1.96662406787820520648 -3.00885152868737071330
20
8 Eopt=-32.1877475627 (Eh) Einter=-2.084031 (kcal/mol)
C  -0.44553595409892704504 0.90734928071939957572 0.81833960052273269081
C  -1.75101809232671956629 1.19698999099567737758 0.46282058772188305884
C  -2.35130423945457023294 0.52359733492060833715 -0.58767600151018006827
C  -1.64159574347406689299 -0.44284558756329722717 -1.27997156670325074046
C  -0.33955796983134034495 -0.73807721917877011641 -0.91832307826633197134
C  0.26858259941358869627 -0.06650911140602110139 0.13411100902858258399
C  1.67981557552648497200 -0.41440565076083513141 0.53869811573308579167
O  2.52400170127453993274 -0.74204647137452228733 -0.54651963684526971843
H  0.02200852166762785889 1.43631386538621663718 1.63599748674042633212
H  -2.30008181295531111132 1.95235680448988602187 1.00483768739779666390
H  -3.36959266314235650341 0.75121032741382631759 -0.86537394338601136834
H  -2.10407118494867839686 -0.97154180749963181540 -2.10017932879618651754
H  0.21999240000022884933 -1.49537070374617764301 -1.44797112570734110015
H  1.65772938224232713189 -1.31000020397889183066 1.16949389197913400373
H  2.11360018692260531736 0.40518045487427561957 1.12755715720322435835
H  2.59867998212928874580 0.02790056134695324819 -1.12674583388386806426
O  -0.90669266021235839226 -2.03795951412672460279 3.02716968361100313700
O  0.20286542422478054393 -2.79386228544953763020 2.57915317425500711934
H  -0.67787896546779757845 -1.81209721392656875061 3.94811639323815066760
H  -0.18434497089884382959 -3.65137590920176879905 2.32306810374668915031
20
6 Eopt=-32.1876944575 (Eh) Einter=-2.050707 (kcal/mol)
C  0.06116284245335343317 0.97266551088201946840 0.96169671087015162758
C  -1.15323182037450000514 1.35615216166955931953 0.41920767184864199395
C  -1.67432388323033087829 0.67640075748371564224 -0.66886707972567360780
C  -0.97959276596743938281 -0.39287621444768139334 -1.20935902837253217434
C  0.23032251738678066744 -0.78080720345050114162 -0.66259502146458193472
C  0.76163934823618018033 -0.09955680518844461924 0.42524101467157160439
C  2.08080944788035759885 -0.53332510012795364407 1.01741000589298424828
O  3.02836720500242240206 -0.94985801672773895188 0.05497642686511044346
H  0.46804194242353852617 1.50694600623448882182 1.80831212028323995433
H  -1.69144984286580957189 2.19032867199010938819 0.84411111218564560676
H  -2.61773607054812362804 0.97623384261636181325 -1.09983109818127533508
H  -1.38493639281761926618 -0.92366512919306453799 -2.05779521084728456159
H  0.77849140934218186150 -1.61489166108198034522 -1.07630311728274996597
H  1.92263405263494524533 -1.40834630844261798899 1.65732009217020714864
H  2.49551088335333348667 0.27117827265924848712 1.63989011365199144343
H  3.22227310865412786001 -0.20929067104113227571 -0.53584791087269423304
O  -4.17222333332250983062 0.17037370187972220026 -3.11017773031016186991
O  -3.26809073953831186188 -0.47616478007814327933 -3.98920370965583170886
H  -4.89611003287369239700 -0.47434083221695655386 -3.00936972348230336038
H  -3.11068640054552547625 0.18700130789989091729 -4.68598707267261183063
20
9 Eopt=-32.1875102900 (Eh) Einter=-1.935141 (kcal/mol)
C  -0.16663700355502086836 1.02118246178991634032 0.92105235874759872061
C  -1.53933850905732394487 1.05410036693740294389 0.74810787242888066029
C  -2.16076273014958974983 0.12088363988683215045 -0.06510610877032968480
C  -1.40597132406367464341 -0.84927216333800770176 -0.70309995437085937020
C  -0.03422555372036713284 -0.88501130478408485125 -0.52450465391292178108
C  0.59624669057121804094 0.04940331624727168497 0.28705998954627298669
C  2.09208482208747437170 -0.00476374861693580100 0.48466278367505388758
O  2.80638261167583324962 -0.41270576090007271564 -0.66369998661113083216
H  0.31652025814874368281 1.75200395688442167597 1.55350727068611926818
H  -2.12447592197782197943 1.81282393078463921476 1.24606534070837215999
H  -3.23110796506933173333 0.14972113105942841393 -0.20217403786566862101
H  -1.88346318550600222430 -1.58126697213471323344 -1.33715389770244841294
H  0.56215478980380539920 -1.64020249884782187699 -1.01529184078722622964
H  2.32995463728733698261 -0.75314974179624494255 1.24868640841934186447
H  2.45881536914656662063 0.96832224672001299126 0.83886916247871912145
H  2.65515589020249143104 0.22869595507400369838 -1.37138373396461465958
O  -3.07417913666056952238 -3.89569396634050235662 -3.88443685004070937694
O  -2.76835819961633244901 -3.47420473810261309922 -2.56073284781758658823
H  -2.54777719727512508285 -3.28819080522364215469 -4.43299516504918056370
H  -3.14544833281876456965 -4.19008568128670333408 -2.01931543390687018302
20
7 Eopt=-32.1874018468 (Eh) Einter=-1.867091 (kcal/mol)
C  -0.18774193041591158426 1.11812710317137065097 0.86141822901336717599
C  -1.55360709802244612021 1.16974681303119809606 0.64154604041969820472
C  -2.16955918082211551834 0.20340362660046698573 -0.13560465969052412638
C  -1.41595909480542858638 -0.81899464418283662859 -0.68813508072951223848
C  -0.05269022605823280025 -0.87530454737189467007 -0.46102139707363037902
C  0.57287970203410276682 0.09403518087388645919 0.31363291614458116419
C  2.06214001179764361282 0.02375400509333990343 0.54814414268560240906
O  2.80627587678120615777 -0.25881952781457034929 -0.62067443920902054533
H  0.29074671330636259192 1.87609805618070901723 1.46503705834185127266
H  -2.13683105961086905467 1.96889271122353237686 1.07435878768815906703
H  -3.23402679209724341902 0.24680815914606274442 -0.31057330742932809375
H  -1.88855254672258343618 -1.57730909361609228370 -1.29403331751193939603
H  0.53847622172851450362 -1.67430084692657743517 -0.88491037526525506696
H  2.28751403216656790107 -0.80020839815723776578 1.23348550548236945978
H  2.41502904819467056896 0.95664058514653016463 1.00885342140931455468
H  2.64688555615452214553 0.43872005572169997523 -1.27131432608555794417
O  -0.43296616668262127847 -4.25620847872664409550 -1.91812673076242234949
O  -1.49486171626810904201 -3.79417666060400282646 -2.73645466732538888976
H  -0.84732336124305018821 -4.95006686751078017750 -1.37366790634718505260
H  -1.10188321526120880378 -3.77214109033314182184 -3.62803521632756353910
20
5 Eopt=-32.1869548746 (Eh) Einter=-1.586612 (kcal/mol)
C  -0.12305186836214794532 0.95600327307821053591 0.82643418783858035859
C  -1.49797087454439714627 1.01462771231801118788 0.67999621370995122493
C  -2.15555443965497817160 0.07914028313406597237 -0.10133713234157151750
C  -1.43342030667811415334 -0.91872395936560935503 -0.73376794220015373327
C  -0.05944698845652056363 -0.98099225412559876158 -0.58307637095988262832
C  0.60623462841491226882 -0.04387453514149607797 0.19667810811232327994
C  2.10485801666031413504 -0.12492752621692061743 0.36215376179062586104
O  2.78640335848666431673 -0.53737441975168698249 -0.80471632698295425534
H  0.38798957235354747386 1.68859378338625809590 1.43447184314627662616
H  -2.06035895928830958823 1.79466451165445217697 1.17090784516405022053
H  -3.22692976831811773053 0.13218803715196492110 -0.21440919921337667220
H  -1.94140463641329485966 -1.65115612417071311313 -1.34308179354447609910
H  0.51300509193263021945 -1.75647564723556426358 -1.07133519120512610279
H  2.34648026267865317251 -0.88219504584717756135 1.11602182010175554616
H  2.49557105359663555788 0.83980345885343798962 0.71327905853473261288
H  2.63137969397289861462 0.11149156957423009273 -1.50477809093659242734
O  -6.09167995929729411131 0.10145492941674041920 -0.37863863791471608078
O  -5.56043757528234561249 1.40773112767972219395 -0.52722077509675435714
H  -6.55483820555928264895 0.13650962159265195295 0.47836255718636777612
H  -5.83987665587779236631 1.67096926355788921725 -1.42319577665869267946
