20
-32.1903621041
C  -0.16129283377306879999 1.07834775774524049829 0.61007814443706387397
C  -1.51299513179093936266 1.29651614039841289738 0.40563640272986883906
C  -2.30286485193696810470 0.29565556012948301934 -0.13385584403250758156
C  -1.73823912367006339075 -0.92503460330248354904 -0.46572844329986318179
C  -0.38843422540247901642 -1.14528086023028818907 -0.25732412875164151211
C  0.41022874202774861629 -0.14458070492375907357 0.28340328891990373972
C  1.88704892195277729172 -0.38043184088903603257 0.47030868934596331554
O  2.60579098102595452247 -0.32549149923212661317 -0.75606497094002123038
H  0.45121066830484835020 1.86097786716384394623 1.03459220726346057262
H  -1.94928806111571240045 2.24878374781134882099 0.66746460312773603363
H  -3.35695793853960511299 0.46563143120641758976 -0.29372508399396013434
H  -2.35160835451261940321 -1.70835713104863540224 -0.88488910694000377788
H  0.05522366686645688999 -2.09661669809661344033 -0.51071990480353490760
H  2.06166568832911778486 -1.38671416309346140494 0.85863922440835604988
H  2.30484594558656530339 0.34996830082483093571 1.17416177255642639743
H  2.45273258642465208368 0.53220886483576201886 -1.17605042846581153704
O  2.66932731577804460699 -2.83977126388745437779 -1.97472644088783400029
O  2.07326807543265356770 -3.53252280547276953371 -0.88422934162459509988
H  2.74945129507864960416 -1.91903836283404238827 -1.62898976970818298859
H  2.25146875589999462264 -4.46421419173108180445 -1.10137197368531136732
