!xtb
!alpb(water)
%maxcore 2200
%pal
    nprocs 12
end

%docker
    guest "oo.xyz"
end

%output
    jsonpropfile true
    jsongbwfile true
end

* xyz 0 1
C            -0.0879064183383560             1.0180238525792129             0.6380650241132265
C            -1.4494951741180897             1.1167887077928018             0.4605629731580504
C            -2.1793422719731126             0.1171722290761980            -0.1509581951634584
C            -1.5523713045547287            -1.0371405032480112            -0.6132034114526057
C            -0.1868724571204707            -1.1192037125646364            -0.4268597251547968
C             0.5469066401030894            -0.1168463671745544             0.1866572677368816
C             2.0313792071153469            -0.2764952781095528             0.3546608049516112
O             2.7056798577924801             0.2462931697492353            -0.7618342534781545
H             0.5099717217874951             1.7877606314175192             1.1149356612156380
H            -1.9530001634390157             2.0135535625622349             0.8169455098192091
H            -3.2383062079081459             0.2639476204418034            -0.2546947299443996
H            -2.1265899235194388            -1.8311356744092440            -1.0980222995243856
H             0.2916639515580849            -2.0226582228389187            -0.7906483789303907
H             2.2654173605623851            -1.3571616920648526             0.4138324847125791
H             2.3262057167952483             0.2736711366485565             1.2766570527076868
H             2.0966594652572388             0.9234305401421998            -1.1660957847666824
*
